(PID.TID 0000.0001) 
(PID.TID 0000.0001) // ======================================================
(PID.TID 0000.0001) //                      MITgcm UV
(PID.TID 0000.0001) //                      =========
(PID.TID 0000.0001) // ======================================================
(PID.TID 0000.0001) // execution environment starting up...
(PID.TID 0000.0001) 
(PID.TID 0000.0001) // MITgcmUV version:  checkpoint68b
(PID.TID 0000.0001) // Build user:        rgadi
(PID.TID 0000.0001) // Build host:        gplogin2.gp.local
(PID.TID 0000.0001) // Build date:        Tue Oct 22 15:09:21 PDT 2024
(PID.TID 0000.0001) 
(PID.TID 0000.0001) // =======================================================
(PID.TID 0000.0001) // Execution Environment parameter file "eedata"
(PID.TID 0000.0001) // =======================================================
(PID.TID 0000.0001) ># Example "eedata" file
(PID.TID 0000.0001) ># Lines beginning "#" are comments
(PID.TID 0000.0001) >#  nTx      :: No. threads per process in X
(PID.TID 0000.0001) >#  nTy      :: No. threads per process in Y
(PID.TID 0000.0001) ># debugMode :: print debug msg (sequence of S/R calls)
(PID.TID 0000.0001) > &EEPARMS
(PID.TID 0000.0001) >#debugMode = .TRUE.,
(PID.TID 0000.0001) > &
(PID.TID 0000.0001) ># Note: Some systems use & as the namelist terminator (as shown here).
(PID.TID 0000.0001) >#       Other systems use a / character.
(PID.TID 0000.0001) 
(PID.TID 0000.0001) // =======================================================
(PID.TID 0000.0001) // Computational Grid Specification ( see files "SIZE.h" )
(PID.TID 0000.0001) //                                  ( and "eedata"       )
(PID.TID 0000.0001) // =======================================================
(PID.TID 0000.0001)      nPx =   16 ; /* No. processes in X */
(PID.TID 0000.0001)      nPy =   16 ; /* No. processes in Y */
(PID.TID 0000.0001)      nSx =    1 ; /* No. tiles in X per process */
(PID.TID 0000.0001)      nSy =    1 ; /* No. tiles in Y per process */
(PID.TID 0000.0001)      sNx =   59 ; /* Tile size in X */
(PID.TID 0000.0001)      sNy =   15 ; /* Tile size in Y */
(PID.TID 0000.0001)      OLx =    3 ; /* Tile overlap distance in X */
(PID.TID 0000.0001)      OLy =    3 ; /* Tile overlap distance in Y */
(PID.TID 0000.0001)      nTx =    1 ; /* No. threads in X per process */
(PID.TID 0000.0001)      nTy =    1 ; /* No. threads in Y per process */
(PID.TID 0000.0001)       Nr = 1117 ; /* No. levels in the vertical   */
(PID.TID 0000.0001)       Nx =  944 ; /* Total domain size in X ( = nPx*nSx*sNx ) */
(PID.TID 0000.0001)       Ny =  240 ; /* Total domain size in Y ( = nPy*nSy*sNy ) */
(PID.TID 0000.0001)   nTiles =    1 ; /* Total no. tiles per process ( = nSx*nSy ) */
(PID.TID 0000.0001)   nProcs =  256 ; /* Total no. processes ( = nPx*nPy ) */
(PID.TID 0000.0001) nThreads =    1 ; /* Total no. threads per process ( = nTx*nTy ) */
(PID.TID 0000.0001) usingMPI =    T ; /* Flag used to control whether MPI is in use */
(PID.TID 0000.0001)                   /*  note: To execute a program with MPI calls */
(PID.TID 0000.0001)                   /*  it must be launched appropriately e.g     */
(PID.TID 0000.0001)                   /*  "mpirun -np 64 ......"                    */
(PID.TID 0000.0001) useCoupler=   F ; /* Flag used to control communications with   */
(PID.TID 0000.0001)                   /*  other model components, through a coupler */
(PID.TID 0000.0001) useNest2W_parent =    F ;/* Control 2-W Nesting comm */
(PID.TID 0000.0001) useNest2W_child  =    F ;/* Control 2-W Nesting comm */
(PID.TID 0000.0001) debugMode =    F ; /* print debug msg. (sequence of S/R calls)  */
(PID.TID 0000.0001) printMapIncludesZeros=    F ; /* print zeros in Std.Output maps */
(PID.TID 0000.0001) maxLengthPrt1D=   65 /* maxLength of 1D array printed to StdOut */
(PID.TID 0000.0001) 
(PID.TID 0000.0001) ======= Starting MPI parallel Run =========
(PID.TID 0000.0001)  My Processor Name (len:  6 ) = c-5-33
(PID.TID 0000.0001)  Located at (  0,  0) on processor grid (0: 15,0: 15)
(PID.TID 0000.0001)  Origin at  (     1,     1) on global grid (1:   944,1:   240)
(PID.TID 0000.0001)  North neighbor = processor 0001
(PID.TID 0000.0001)  South neighbor = processor 0015
(PID.TID 0000.0001)   East neighbor = processor 0016
(PID.TID 0000.0001)   West neighbor = processor 0240
(PID.TID 0000.0001) // ======================================================
(PID.TID 0000.0001) // Mapping of tiles to threads
(PID.TID 0000.0001) // ======================================================
(PID.TID 0000.0001) // -o- Thread   1, tiles (   1:   1,   1:   1)
(PID.TID 0000.0001) 
(PID.TID 0000.0001) // ======================================================
(PID.TID 0000.0001) // Tile <-> Tile connectvity table
(PID.TID 0000.0001) // ======================================================
(PID.TID 0000.0001) // Tile number: 000001 (process no. = 000000)
(PID.TID 0000.0001) //        WEST: Tile = 000016, Process = 000240, Comm = messages
(PID.TID 0000.0001) //                bi = 000001, bj = 000001
(PID.TID 0000.0001) //        EAST: Tile = 000002, Process = 000016, Comm = messages
(PID.TID 0000.0001) //                bi = 000001, bj = 000001
(PID.TID 0000.0001) //       SOUTH: Tile = 000241, Process = 000015, Comm = messages
(PID.TID 0000.0001) //                bi = 000001, bj = 000001
(PID.TID 0000.0001) //       NORTH: Tile = 000017, Process = 000001, Comm = messages
(PID.TID 0000.0001) //                bi = 000001, bj = 000001
(PID.TID 0000.0001) 
(PID.TID 0000.0001)  INI_PARMS: opening model parameter file "data"
(PID.TID 0000.0001)  OPEN_COPY_DATA_FILE: opening file data
(PID.TID 0000.0001) // =======================================================
(PID.TID 0000.0001) // Parameter file "data"
(PID.TID 0000.0001) // =======================================================
(PID.TID 0000.0001) ># ====================
(PID.TID 0000.0001) ># | Model parameters |
(PID.TID 0000.0001) ># ====================
(PID.TID 0000.0001) >#
(PID.TID 0000.0001) ># Continuous equation parameters
(PID.TID 0000.0001) > &PARM01
(PID.TID 0000.0001) > tRef = 1117*-0.2,
(PID.TID 0000.0001) > sRef = 1117*34.2,
(PID.TID 0000.0001) > eosType='JMD95Z',
(PID.TID 0000.0001) > HeatCapacity_Cp = 3974.0,
(PID.TID 0000.0001) > rhoConst=1030.,
(PID.TID 0000.0001) > gravity=9.81,
(PID.TID 0000.0001) >#MY VALUES
(PID.TID 0000.0001) >#viscAr=1.E-3,
(PID.TID 0000.0001) >#viscAh= 2.E-1,
(PID.TID 0000.0001) >#CILAN VALUES
(PID.TID 0000.0001) > viscAh=10.,
(PID.TID 0000.0001) >#viscAh=0.3,
(PID.TID 0000.0001) > viscAr=4.E-2,
(PID.TID 0000.0001) >#viscAr=2.8E-4,
(PID.TID 0000.0001) >#Horizontal Bi-harmonic viscosity
(PID.TID 0000.0001) > viscA4=2.5,
(PID.TID 0000.0001) > no_slip_sides=.FALSE.,
(PID.TID 0000.0001) > no_slip_bottom=.FALSE.,
(PID.TID 0000.0001) >#MY VALUES
(PID.TID 0000.0001) >#diffKhT= 10.,
(PID.TID 0000.0001) >#diffKrT=2.74576,
(PID.TID 0000.0001) >#diffKhS= 10.,
(PID.TID 0000.0001) >#diffKrS=2.74576,
(PID.TID 0000.0001) >#CILAN VALUES
(PID.TID 0000.0001) > diffKhT= 0,
(PID.TID 0000.0001) >#diffKrT=2.8E-4,
(PID.TID 0000.0001) > diffKrT=2.8E-4,
(PID.TID 0000.0001) > diffKhS= 0,
(PID.TID 0000.0001) >#diffKrS=2.8E-4,
(PID.TID 0000.0001) > diffKrS=2.8E-4,
(PID.TID 0000.0001) > bottomDragQuadratic=2.5E-3,
(PID.TID 0000.0001) > staggerTimestep = .TRUE.,
(PID.TID 0000.0001) >#tempAdvScheme=33,
(PID.TID 0000.0001) >#saltAdvScheme=33,
(PID.TID 0000.0001) > tempAdvScheme=77,
(PID.TID 0000.0001) > saltAdvScheme=77,
(PID.TID 0000.0001) > vectorInvariantMomentum = .TRUE.,
(PID.TID 0000.0001) ># momImplVertAdv=.TRUE.,
(PID.TID 0000.0001) >#tempImplVertAdv=.TRUE.,
(PID.TID 0000.0001) >#saltImplVertAdv=.TRUE.,
(PID.TID 0000.0001) > implicitDiffusion = .TRUE.,
(PID.TID 0000.0001) > implicitViscosity = .TRUE.,
(PID.TID 0000.0001) > selectImplicitDrag = 2,
(PID.TID 0000.0001) > implicitFreeSurface=.TRUE.,
(PID.TID 0000.0001) > useRealFreshWaterFlux = .TRUE.,
(PID.TID 0000.0001) > exactConserv=.TRUE.,
(PID.TID 0000.0001) ># start NLFS (without rstar)
(PID.TID 0000.0001) > nonlinFreeSurf=4,
(PID.TID 0000.0001) > hFacInf=0.05,
(PID.TID 0000.0001) > hFacSup=2.0,
(PID.TID 0000.0001) ># end NLFS
(PID.TID 0000.0001) > hFacMin=0.10,
(PID.TID 0000.0001) >#integr_GeoPot = 1,
(PID.TID 0000.0001) > ivdc_kappa = 1.,
(PID.TID 0000.0001) > useCoriolis=.TRUE.,
(PID.TID 0000.0001) > useJamartWetPoints=.FALSE.,
(PID.TID 0000.0001) > selectBotDragQuadr=1,
(PID.TID 0000.0001) > selectCoriMap=2,
(PID.TID 0000.0001) >#bottomVisc_pCell=.TRUE.,
(PID.TID 0000.0001) >#-
(PID.TID 0000.0001) >#readBinaryPrec=64,
(PID.TID 0000.0001) >#writeBinaryPrec=64,
(PID.TID 0000.0001) > useSingleCpuIO=.TRUE.,
(PID.TID 0000.0001) >#globalFiles=.TRUE.,
(PID.TID 0000.0001) > debuglevel = 1,
(PID.TID 0000.0001) > plotLevel = 0,
(PID.TID 0000.0001) > &
(PID.TID 0000.0001) >
(PID.TID 0000.0001) ># Elliptic solver parameters
(PID.TID 0000.0001) > &PARM02
(PID.TID 0000.0001) > cg2dMaxIters=300,
(PID.TID 0000.0001) > cg2dTargetResidual=1.E-11,
(PID.TID 0000.0001) >#printResidualFreq=100,
(PID.TID 0000.0001) > &
(PID.TID 0000.0001) >
(PID.TID 0000.0001) >#Time stepping parameters
(PID.TID 0000.0001) > &PARM03
(PID.TID 0000.0001) > nIter0=756000,
(PID.TID 0000.0001) > nTimeSteps=20,
(PID.TID 0000.0001) >#nTimeSteps=2,
(PID.TID 0000.0001) >#startTime=0.,
(PID.TID 0000.0001) >#endTime=2592000.,
(PID.TID 0000.0001) >#endTime=3456000.,
(PID.TID 0000.0001) > deltaT=4,
(PID.TID 0000.0001) > forcing_In_AB  = .FALSE.,
(PID.TID 0000.0001) > abEps=0.1,
(PID.TID 0000.0001) > pChkptFreq= 43200.,
(PID.TID 0000.0001) > chkptFreq = 43200.,
(PID.TID 0000.0001) > dumpFreq =  43200.,
(PID.TID 0000.0001) ># monitorFreq= 7200.,
(PID.TID 0000.0001) >#monitorSelect=1,
(PID.TID 0000.0001) >#monitorFreq=3600.,
(PID.TID 0000.0001) >#monitorFreq=1200.0,
(PID.TID 0000.0001) > monitorFreq=4,
(PID.TID 0000.0001) >#dumpFreq = 10800.0,
(PID.TID 0000.0001) > dumpFreq = 4.0,
(PID.TID 0000.0001) >#dumpFreq=400.0,
(PID.TID 0000.0001) >#- for testing purpose:
(PID.TID 0000.0001) >#nTimeSteps=20,
(PID.TID 0000.0001) >#dumpFreq = 1200.,
(PID.TID 0000.0001) >#monitorFreq=1.,
(PID.TID 0000.0001) >#periodicExternalForcing=.TRUE.,
(PID.TID 0000.0001) >#externForcingPeriod=43200.,
(PID.TID 0000.0001) >#externForcingCycle=31104000,
(PID.TID 0000.0001) > &
(PID.TID 0000.0001) >
(PID.TID 0000.0001) ># Gridding parameters
(PID.TID 0000.0001) > &PARM04
(PID.TID 0000.0001) > usingCartesianGrid=.FALSE.,
(PID.TID 0000.0001) > usingSphericalPolarGrid=.TRUE.,
(PID.TID 0000.0001) > delR=1117*1.00074,
(PID.TID 0000.0001) >#delX=1*.125,
(PID.TID 0000.0001) > delXFile='delx_spacing.bin',
(PID.TID 0000.0001) > delYFile='dely_spacing.bin',
(PID.TID 0000.0001) >#delX=1632*0.01,
(PID.TID 0000.0001) >#delY=368*0.01,
(PID.TID 0000.0001) > xgOrigin = -62.6,
(PID.TID 0000.0001) > ygOrigin = 80.45,
(PID.TID 0000.0001) > pCellMix_select=20,
(PID.TID 0000.0001) > pcellMix_delR = 10.,
(PID.TID 0000.0001) >#interViscAr_pCell = .TRUE.,
(PID.TID 0000.0001) >#interDiffKr_pCell = .TRUE.,
(PID.TID 0000.0001) > pCellMix_viscAr = 1117*1.E-3,
(PID.TID 0000.0001) > pCellMix_diffKr = 1117*1.E-4,
(PID.TID 0000.0001) ># current default: diffKzT=5.E-5, viscAz=1.E-3,
(PID.TID 0000.0001) > &
(PID.TID 0000.0001) >
(PID.TID 0000.0001) ># Input datasets
(PID.TID 0000.0001) > &PARM05
(PID.TID 0000.0001) > bathyFile='bathy_flat.bin',
(PID.TID 0000.0001) > hydrogThetaFile='temp_ini.bin',	
(PID.TID 0000.0001) > hydrogSaltFile ='salt_ini.bin',
(PID.TID 0000.0001) ># pSurfInitFile ='etai_ini.bin'
(PID.TID 0000.0001) > &
(PID.TID 0000.0001) 
(PID.TID 0000.0001)  INI_PARMS ; starts to read PARM01
(PID.TID 0000.0001)  INI_PARMS ; read PARM01 : OK
(PID.TID 0000.0001)  INI_PARMS ; starts to read PARM02
(PID.TID 0000.0001)  INI_PARMS ; read PARM02 : OK
(PID.TID 0000.0001)  INI_PARMS ; starts to read PARM03
(PID.TID 0000.0001)  INI_PARMS ; read PARM03 : OK
(PID.TID 0000.0001)  INI_PARMS ; starts to read PARM04
(PID.TID 0000.0001)  INI_PARMS ; read PARM04 : OK
(PID.TID 0000.0001)  INI_PARMS ; starts to read PARM05
(PID.TID 0000.0001)  INI_PARMS ; read PARM05 : OK
(PID.TID 0000.0001)  INI_PARMS: finished reading file "data"
(PID.TID 0000.0001)  PACKAGES_BOOT: opening data.pkg
(PID.TID 0000.0001)  OPEN_COPY_DATA_FILE: opening file data.pkg
(PID.TID 0000.0001) // =======================================================
(PID.TID 0000.0001) // Parameter file "data.pkg"
(PID.TID 0000.0001) // =======================================================
(PID.TID 0000.0001) ># Packages (lines beginning "#" are comments)
(PID.TID 0000.0001) > &PACKAGES
(PID.TID 0000.0001) > useOBCS=.TRUE.,
(PID.TID 0000.0001) > useShelfIce=.TRUE.,
(PID.TID 0000.0001) > useDiagnostics = .TRUE.,
(PID.TID 0000.0001) > &
(PID.TID 0000.0001) 
(PID.TID 0000.0001)  PACKAGES_BOOT: finished reading data.pkg
(PID.TID 0000.0001)  PACKAGES_BOOT: On/Off package Summary
 --------  pkgs with a standard "usePKG" On/Off switch in "data.pkg":  --------
 pkg/obcs                 compiled   and   used ( useOBCS                  = T )
 pkg/shelfice             compiled   and   used ( useShelfIce              = T )
 pkg/diagnostics          compiled   and   used ( useDiagnostics           = T )
 -------- pkgs without standard "usePKG" On/Off switch in "data.pkg":  --------
 pkg/generic_advdiff      compiled   and   used ( useGAD                   = T )
 pkg/mom_common           compiled   and   used ( momStepping              = T )
 pkg/mom_vecinv           compiled   and   used ( +vectorInvariantMomentum = T )
 pkg/mom_fluxform         compiled but not used ( & not vectorInvariantMom = F )
 pkg/monitor              compiled   and   used ( monitorFreq > 0.         = T )
 pkg/debug                compiled but not used ( debugMode                = F )
 pkg/rw                   compiled   and   used
 pkg/mdsio                compiled   and   used
(PID.TID 0000.0001)  PACKAGES_BOOT: End of package Summary
(PID.TID 0000.0001) 
(PID.TID 0000.0001)  OBCS_READPARMS: opening data.obcs
(PID.TID 0000.0001)  OPEN_COPY_DATA_FILE: opening file data.obcs
(PID.TID 0000.0001) // =======================================================
(PID.TID 0000.0001) // Parameter file "data.obcs"
(PID.TID 0000.0001) // =======================================================
(PID.TID 0000.0001) ># Open-boundaries
(PID.TID 0000.0001) > &OBCS_PARM01
(PID.TID 0000.0001) > OB_Jnorth(13:145)=133*240,
(PID.TID 0000.0001) > useOBCSprescribe=.TRUE.,
(PID.TID 0000.0001) >#OBWuFile='uVel_obc.bin',
(PID.TID 0000.0001) >#OBNvFile='vVel_obc.bin',
(PID.TID 0000.0001) > OBNtFile='temp_obc.bin',
(PID.TID 0000.0001) > OBNsFile='salt_obc.bin',
(PID.TID 0000.0001) > OBCS_u1_adv_T=1,
(PID.TID 0000.0001) > OBCS_u1_adv_S=1,
(PID.TID 0000.0001) >#--
(PID.TID 0000.0001) > useOBCSbalance=.TRUE.,
(PID.TID 0000.0001) > useOBCSsponge=.TRUE.,
(PID.TID 0000.0001) > useLinearSponge = .TRUE.,
(PID.TID 0000.0001) >#- default is =T for these specific switches:
(PID.TID 0000.0001) > OBCSsponge_VatNS=.FALSE.,
(PID.TID 0000.0001) > OBCSsponge_UatNS=.FALSE.,
(PID.TID 0000.0001) >#--
(PID.TID 0000.0001) > OBCSprintDiags = .FALSE.,
(PID.TID 0000.0001) > &
(PID.TID 0000.0001) >
(PID.TID 0000.0001) ># Orlanski parameters (skipped with #undef ALLOW_ORLANSKI)
(PID.TID 0000.0001) >#&OBCS_PARM02
(PID.TID 0000.0001) >#Cmax=0.45,
(PID.TID 0000.0001) >#cVelTimeScale=1000.,
(PID.TID 0000.0001) >#&
(PID.TID 0000.0001) >
(PID.TID 0000.0001) ># Sponge layer parameters
(PID.TID 0000.0001) > &OBCS_PARM03
(PID.TID 0000.0001) > spongeThickness = 20,
(PID.TID 0000.0001) > Vrelaxobcsbound = 864000.,
(PID.TID 0000.0001) > Urelaxobcsbound = 864000.,
(PID.TID 0000.0001) > &
(PID.TID 0000.0001) 
(PID.TID 0000.0001)  OBCS_READPARMS: finished reading data.obcs
(PID.TID 0000.0001)  OB_indexUnset = /* unset OB index value (i.e. no OB) */
(PID.TID 0000.0001)                       0
(PID.TID 0000.0001)     ;
(PID.TID 0000.0001)  Northern OB global indices : OB_Jnorth =
(PID.TID 0000.0001)    12 @        0,                           /* I =  1: 12 */
(PID.TID 0000.0001)   133 @      240,                           /* I = 13:145 */
(PID.TID 0000.0001)   799 @        0                            /* I =146:944 */
(PID.TID 0000.0001)  Southern OB global indices : OB_Jsouth =
(PID.TID 0000.0001)   944 @        0                            /* I =  1:944 */
(PID.TID 0000.0001)  Eastern  OB global indices : OB_Ieast =
(PID.TID 0000.0001)   240 @        0                            /* J =  1:240 */
(PID.TID 0000.0001)  Western  OB global indices : OB_Iwest =
(PID.TID 0000.0001)   240 @        0                            /* J =  1:240 */
(PID.TID 0000.0001) 
(PID.TID 0000.0001)  SHELFICE_READPARMS: opening data.shelfice
(PID.TID 0000.0001)  OPEN_COPY_DATA_FILE: opening file data.shelfice
(PID.TID 0000.0001) // =======================================================
(PID.TID 0000.0001) // Parameter file "data.shelfice"
(PID.TID 0000.0001) // =======================================================
(PID.TID 0000.0001) ># ===================================
(PID.TID 0000.0001) ># | Parameters for SHELFICE package |
(PID.TID 0000.0001) ># ===================================
(PID.TID 0000.0001) > &SHELFICE_PARM01
(PID.TID 0000.0001) > SHELFICEconserve = .TRUE.,
(PID.TID 0000.0001) > SHELFICEuseGammaFrict = .TRUE.,
(PID.TID 0000.0001) > SHELFICEDragQuadratic = 0.0015,
(PID.TID 0000.0001) > shiCdrag = 0.0015,
(PID.TID 0000.0001) > SHELFICEselectDragQuadr= 2,
(PID.TID 0000.0001) >#SHELFICEMassStepping = .TRUE.,
(PID.TID 0000.0001) >#usenonlinearDyntimestep = .TRUE.,
(PID.TID 0000.0001) >#--
(PID.TID 0000.0001) >#SHELFICEremeshFrequency = 600.0,
(PID.TID 0000.0001) > SHELFICEremeshFrequency = 8.,
(PID.TID 0000.0001) >#- need to satisfy: splitThrs > 1 + mergeThrs / Sdz
(PID.TID 0000.0001) >#       with: Sdz = min{ delR(k+1)/delR(k) }_[k=1:Nr-1]
(PID.TID 0000.0001) > SHELFICEsplitThreshold = 1.12,
(PID.TID 0000.0001) > SHELFICEmergeThreshold = 0.10,
(PID.TID 0000.0001) >#--
(PID.TID 0000.0001) > SHELFICEtopoFile='shelficeTopo.Lin.bin',
(PID.TID 0000.0001) >#SHELFICEmassFile='shelficeMass.Lin.bin',
(PID.TID 0000.0001) >#SHELFICEMassDynTendFile='shelfice_dMdt.r02.bin',
(PID.TID 0000.0001) > SHELFICEwriteState = .TRUE.,
(PID.TID 0000.0001) >#GL3Dfilename='GL_ini.bin',
(PID.TID 0000.0001) >#GZ3Dfilename='GZ_2D.bin',
(PID.TID 0000.0001) >#FZ3Dfilename='FZ_limit.bin',
(PID.TID 0000.0001) >#front3Dfilename='ice_front_2D.bin',
(PID.TID 0000.0001) >#Time_period = 43200.0,
(PID.TID 0000.0001) >#facm = 1.0,
(PID.TID 0000.0001) >#amp_t = 1.0,
(PID.TID 0000.0001) > &
(PID.TID 0000.0001) 
(PID.TID 0000.0001)  SHELFICE_READPARMS: finished reading data.shelfice
(PID.TID 0000.0001)  DIAGNOSTICS_READPARMS: opening data.diagnostics
(PID.TID 0000.0001)  OPEN_COPY_DATA_FILE: opening file data.diagnostics
(PID.TID 0000.0001) // =======================================================
(PID.TID 0000.0001) // Parameter file "data.diagnostics"
(PID.TID 0000.0001) // =======================================================
(PID.TID 0000.0001) ># Diagnostic Package Choices
(PID.TID 0000.0001) >#-----------------
(PID.TID 0000.0001) ># for each output-stream:
(PID.TID 0000.0001) >#  filename(n) : prefix of the output file name (only 8.c long) for outp.stream n
(PID.TID 0000.0001) >#  frequency(n):< 0 : write snap-shot output every |frequency| seconds
(PID.TID 0000.0001) >#               > 0 : write time-average output every frequency seconds
(PID.TID 0000.0001) >#  timePhase(n)     : write at time = timePhase + multiple of |frequency|
(PID.TID 0000.0001) >#  averagingFreq(n) : frequency (in s) for periodic averaging interval
(PID.TID 0000.0001) >#  averagingPhase(n): phase     (in s) for periodic averaging interval
(PID.TID 0000.0001) >#  repeatCycle(n)   : number of averaging intervals in 1 cycle
(PID.TID 0000.0001) >#  levels(:,n) : list of levels to write to file (Notes: declared as REAL)
(PID.TID 0000.0001) >#                 when this entry is missing, select all common levels of this list
(PID.TID 0000.0001) >#  fields(:,n) : list of diagnostics fields (8.c) (see "available_diagnostics.log"
(PID.TID 0000.0001) >#                 file for the list of all available diag. in this particular config)
(PID.TID 0000.0001) >#-----------------
(PID.TID 0000.0001) > &DIAGNOSTICS_LIST
(PID.TID 0000.0001) ># diag_mnc     = .FALSE.,
(PID.TID 0000.0001) >  dumpAtLast   = .TRUE.,
(PID.TID 0000.0001) >  fields(1:12,1) = 'ETAN    ','RSURF   ','oceTAUX ','oceTAUY ',
(PID.TID 0000.0001) >                   'oceQnet ','oceFWflx',
(PID.TID 0000.0001) >                   'SHIfwFlx','SHIhtFlx','SHIgammT','SHIgammS',
(PID.TID 0000.0001) >                   'SHI_mass','SHI_dmdt',
(PID.TID 0000.0001) >#                  'surForcT','surForcS','TFLUX   ','SFLUX   ','oceFreez',
(PID.TID 0000.0001) >#                  'TRELAX  ','SRELAX  ',
(PID.TID 0000.0001) >#  fields(1,1)='ETAN'
(PID.TID 0000.0001) >   filename(1) = 'surfDiag',
(PID.TID 0000.0001) ># frequency(1) =  2592000.,
(PID.TID 0000.0001) ># frequency(1) =  86400.,
(PID.TID 0000.0001) >  frequency(1) =  -3600.0,
(PID.TID 0000.0001) >#-
(PID.TID 0000.0001) >  fields(1:9,2) = 'RCENTER ','TOTVTEND',
(PID.TID 0000.0001) >                   'hFactorC','hFactorW','hFactorS','TOTSTEND',
(PID.TID 0000.0001) >                   'TOTTTEND','RCENTER ','momKE   ',
(PID.TID 0000.0001) >   filename(2) = 'dynDiag',
(PID.TID 0000.0001) >#  fileFlags(2) = '  h     ',
(PID.TID 0000.0001) ># frequency(2) =  2592000.,
(PID.TID 0000.0001) ># frequency(2) =  86400.,
(PID.TID 0000.0001) >  frequency(2) =  -3600.,
(PID.TID 0000.0001) >#-
(PID.TID 0000.0001) >  fields(1:7,3) =  'ETAN    ','RSURF   ',
(PID.TID 0000.0001) >                   'oceQnet ','oceFWflx',
(PID.TID 0000.0001) >                   'SHIfwFlx','SHIhtFlx','SHIuStar',
(PID.TID 0000.0001) >#  filename(3) = 'surfInst',
(PID.TID 0000.0001) ># frequency(3) =  -86400.,
(PID.TID 0000.0001) >  frequency(3) =  -86400.,
(PID.TID 0000.0001) >  timePhase(3) = 0.,
(PID.TID 0000.0001) >#-
(PID.TID 0000.0001) >  fields(1:8,4)  = 'UVEL    ','VVEL    ','WVEL    ',
(PID.TID 0000.0001) >                   'THETA   ','SALT    ',
(PID.TID 0000.0001) >                   'hFactorC','hFactorW','hFactorS',
(PID.TID 0000.0001) >  filename(4) = 'dynInst',
(PID.TID 0000.0001) ># frequency(4) =  -86400.,
(PID.TID 0000.0001) >  frequency(4) =  -86400.,
(PID.TID 0000.0001) >#  frequency(4) = -200.,
(PID.TID 0000.0001) >  timePhase(4) = 0.,
(PID.TID 0000.0001) > &
(PID.TID 0000.0001) >
(PID.TID 0000.0001) >#--------------------
(PID.TID 0000.0001) ># Parameter for Diagnostics of per level statistics:
(PID.TID 0000.0001) >#--------------------
(PID.TID 0000.0001) >#  diagSt_mnc (logical): write stat-diags to NetCDF files (default=diag_mnc)
(PID.TID 0000.0001) >#  diagSt_regMaskFile : file containing the region-mask to read-in
(PID.TID 0000.0001) >#  nSetRegMskFile   : number of region-mask sets within the region-mask file
(PID.TID 0000.0001) >#  set_regMask(i)   : region-mask set-index that identifies the region "i"
(PID.TID 0000.0001) >#  val_regMask(i)   : region "i" identifier value in the region mask
(PID.TID 0000.0001) >#--for each output-stream:
(PID.TID 0000.0001) >#  stat_fName(n) : prefix of the output file name (max 80c long) for outp.stream n
(PID.TID 0000.0001) >#  stat_freq(n):< 0 : write snap-shot output every |stat_freq| seconds
(PID.TID 0000.0001) >#               > 0 : write time-average output every stat_freq seconds
(PID.TID 0000.0001) >#  stat_phase(n)    : write at time = stat_phase + multiple of |stat_freq|
(PID.TID 0000.0001) >#  stat_region(:,n) : list of "regions" (default: 1 region only=global)
(PID.TID 0000.0001) >#  stat_fields(:,n) : list of selected diagnostics fields (8.c) in outp.stream n
(PID.TID 0000.0001) >#                (see "available_diagnostics.log" file for the full list of diags)
(PID.TID 0000.0001) >#--------------------
(PID.TID 0000.0001) > &DIAG_STATIS_PARMS
(PID.TID 0000.0001) >#- regional mask: =1 : under-ice ; =2 : open-ocean
(PID.TID 0000.0001) >  diagSt_regMaskFile='under_Ice_mask.bin',
(PID.TID 0000.0001) >  nSetRegMskFile=1,
(PID.TID 0000.0001) >  set_regMask(1:2)= 1,  1,
(PID.TID 0000.0001) >  val_regMask(1:2)= 1., 2.,
(PID.TID 0000.0001) >#---
(PID.TID 0000.0001) > stat_fields(1:6,1) = 'ETAN    ','THETA   ','SALT    ',
(PID.TID 0000.0001) >                      'UVEL    ','VVEL    ','WVEL    ',
(PID.TID 0000.0001) >    stat_fname(1) = 'dynStDiag',
(PID.TID 0000.0001) >     stat_freq(1) = 21600.,
(PID.TID 0000.0001) >     stat_freq(1) = 3600.,
(PID.TID 0000.0001) >#    stat_freq(1) = 1800.,
(PID.TID 0000.0001) >#-
(PID.TID 0000.0001) > stat_fields(1:2,2) = 'ETAN    ','RSURF   ',
(PID.TID 0000.0001) >   stat_region(1:3,2) = 0, 1, 2,
(PID.TID 0000.0001) >    stat_fname(2) = 'surfStDiag',
(PID.TID 0000.0001) >     stat_freq(2) = 10800.,
(PID.TID 0000.0001) >     stat_freq(2) = 1800.,
(PID.TID 0000.0001) >#    stat_freq(2) =  900.,
(PID.TID 0000.0001) > &
(PID.TID 0000.0001) >
(PID.TID 0000.0001) 
(PID.TID 0000.0001) S/R DIAGNOSTICS_READPARMS, read namelist "diagnostics_list": start
(PID.TID 0000.0001) S/R DIAGNOSTICS_READPARMS, read namelist "diagnostics_list": OK
(PID.TID 0000.0001) S/R DIAGNOSTICS_READPARMS, read namelist "DIAG_STATIS_PARMS": start
(PID.TID 0000.0001) S/R DIAGNOSTICS_READPARMS, read namelist "DIAG_STATIS_PARMS": OK
(PID.TID 0000.0001)  DIAGNOSTICS_READPARMS: global parameter summary:
(PID.TID 0000.0001)  dumpAtLast = /* always write time-ave diags at the end */
(PID.TID 0000.0001)                   T
(PID.TID 0000.0001)     ;
(PID.TID 0000.0001)  diag_mnc =   /* write NetCDF output files */
(PID.TID 0000.0001)                   F
(PID.TID 0000.0001)     ;
(PID.TID 0000.0001)  useMissingValue = /* put MissingValue where mask = 0 */
(PID.TID 0000.0001)                   F
(PID.TID 0000.0001)     ;
(PID.TID 0000.0001)  diagCG_maxIters = /* max number of iters in diag_cg2d */
(PID.TID 0000.0001)                     300
(PID.TID 0000.0001)     ;
(PID.TID 0000.0001)  diagCG_resTarget = /* residual target for diag_cg2d */
(PID.TID 0000.0001)                 9.999999999999999E-12
(PID.TID 0000.0001)     ;
(PID.TID 0000.0001)  diagCG_pcOffDFac = /* preconditioner off-diagonal factor */
(PID.TID 0000.0001)                 9.611687812379854E-01
(PID.TID 0000.0001)     ;
(PID.TID 0000.0001) -----------------------------------------------------
(PID.TID 0000.0001)  DIAGNOSTICS_READPARMS: active diagnostics summary:
(PID.TID 0000.0001) -----------------------------------------------------
(PID.TID 0000.0001) Creating Output Stream: surfDiag
(PID.TID 0000.0001) Output Frequency:      -3600.000000 ; Phase:        1800.000000
(PID.TID 0000.0001)  Averaging Freq.:          0.000000 , Phase:           0.000000 , Cycle:   1
(PID.TID 0000.0001)  missing value: -9.990000000000E+02
(PID.TID 0000.0001)  Levels:    will be set later
(PID.TID 0000.0001)  Fields:    ETAN     RSURF    oceTAUX  oceTAUY  oceQnet  oceFWflx SHIfwFlx SHIhtFlx SHIgammT SHIgammS
(PID.TID 0000.0001)  Fields:    SHI_mass SHI_dmdt
(PID.TID 0000.0001) Creating Output Stream: dynDiag
(PID.TID 0000.0001) Output Frequency:      -3600.000000 ; Phase:        1800.000000
(PID.TID 0000.0001)  Averaging Freq.:          0.000000 , Phase:           0.000000 , Cycle:   1
(PID.TID 0000.0001)  missing value: -9.990000000000E+02
(PID.TID 0000.0001)  Levels:    will be set later
(PID.TID 0000.0001)  Fields:    RCENTER  TOTVTEND hFactorC hFactorW hFactorS TOTSTEND TOTTTEND RCENTER  momKE
(PID.TID 0000.0001) Creating Output Stream: dynInst
(PID.TID 0000.0001) Output Frequency:     -86400.000000 ; Phase:           0.000000
(PID.TID 0000.0001)  Averaging Freq.:          0.000000 , Phase:           0.000000 , Cycle:   1
(PID.TID 0000.0001)  missing value: -9.990000000000E+02
(PID.TID 0000.0001)  Levels:    will be set later
(PID.TID 0000.0001)  Fields:    UVEL     VVEL     WVEL     THETA    SALT     hFactorC hFactorW hFactorS
(PID.TID 0000.0001) -----------------------------------------------------
(PID.TID 0000.0001)  DIAGNOSTICS_READPARMS: statistics diags. summary:
(PID.TID 0000.0001) Creating Stats. Output Stream: dynStDiag
(PID.TID 0000.0001) Output Frequency:       3600.000000 ; Phase:           0.000000
(PID.TID 0000.0001)  Regions:   0
(PID.TID 0000.0001)  Fields:    ETAN     THETA    SALT     UVEL     VVEL     WVEL
(PID.TID 0000.0001) Creating Stats. Output Stream: surfStDiag
(PID.TID 0000.0001) Output Frequency:       1800.000000 ; Phase:           0.000000
(PID.TID 0000.0001)  Regions:   0  1  2
(PID.TID 0000.0001)  Fields:    ETAN     RSURF
(PID.TID 0000.0001) -----------------------------------------------------
(PID.TID 0000.0001) 
(PID.TID 0000.0001) SET_PARMS: done
(PID.TID 0000.0001) S/R LOAD_GRID_SPACING: delX loaded from file: delx_spacing.bin
(PID.TID 0000.0001) S/R LOAD_GRID_SPACING: delY loaded from file: dely_spacing.bin
(PID.TID 0000.0001) Enter INI_VERTICAL_GRID: setInterFDr=    T ; setCenterDr=    F
(PID.TID 0000.0001) %MON XC_max                       =  -6.0075887892419E+01
(PID.TID 0000.0001) %MON XC_min                       =  -6.2595511669666E+01
(PID.TID 0000.0001) %MON XC_mean                      =  -6.0687989624278E+01
(PID.TID 0000.0001) %MON XC_sd                        =   6.0526012978985E-01
(PID.TID 0000.0001) %MON XG_max                       =  -6.0076336725464E+01
(PID.TID 0000.0001) %MON XG_min                       =  -6.2600000000000E+01
(PID.TID 0000.0001) %MON XG_mean                      =  -6.0689326785793E+01
(PID.TID 0000.0001) %MON XG_sd                        =   6.0669588859430E-01
(PID.TID 0000.0001) %MON DXC_max                      =   1.6555355749185E+02
(PID.TID 0000.0001) %MON DXC_min                      =   1.3891320530089E+01
(PID.TID 0000.0001) %MON DXC_mean                     =   4.8652647760139E+01
(PID.TID 0000.0001) %MON DXC_sd                       =   5.7353429847538E+01
(PID.TID 0000.0001) %MON DXF_max                      =   1.6555355749185E+02
(PID.TID 0000.0001) %MON DXF_min                      =   1.3765493709815E+01
(PID.TID 0000.0001) %MON DXF_mean                     =   4.8652647760139E+01
(PID.TID 0000.0001) %MON DXF_sd                       =   5.7403849708742E+01
(PID.TID 0000.0001) %MON DXG_max                      =   1.6557682983964E+02
(PID.TID 0000.0001) %MON DXG_min                      =   1.3766151516539E+01
(PID.TID 0000.0001) %MON DXG_mean                     =   4.8655216084077E+01
(PID.TID 0000.0001) %MON DXG_sd                       =   5.7406886149812E+01
(PID.TID 0000.0001) %MON DXV_max                      =   1.6557682983964E+02
(PID.TID 0000.0001) %MON DXV_min                      =   1.3891984349655E+01
(PID.TID 0000.0001) %MON DXV_mean                     =   4.8655216084077E+01
(PID.TID 0000.0001) %MON DXV_sd                       =   5.7356463626111E+01
(PID.TID 0000.0001) %MON YC_max                       =   8.0690370865969E+01
(PID.TID 0000.0001) %MON YC_min                       =   8.0451354850130E+01
(PID.TID 0000.0001) %MON YC_mean                      =   8.0582054472072E+01
(PID.TID 0000.0001) %MON YC_sd                        =   6.3978738528278E-02
(PID.TID 0000.0001) %MON YG_max                       =   8.0689922032924E+01
(PID.TID 0000.0001) %MON YG_min                       =   8.0450000000000E+01
(PID.TID 0000.0001) %MON YG_mean                      =   8.0581552764365E+01
(PID.TID 0000.0001) %MON YG_sd                        =   6.4070201798238E-02
(PID.TID 0000.0001) %MON DYC_max                      =   2.9634075110621E+02
(PID.TID 0000.0001) %MON DYC_min                      =   8.9727398199626E+01
(PID.TID 0000.0001) %MON DYC_mean                     =   1.1155719029098E+02
(PID.TID 0000.0001) %MON DYC_sd                       =   3.6192768205476E+01
(PID.TID 0000.0001) %MON DYF_max                      =   3.0125762848278E+02
(PID.TID 0000.0001) %MON DYF_min                      =   8.8238640898019E+01
(PID.TID 0000.0001) %MON DYF_mean                     =   1.1155719029098E+02
(PID.TID 0000.0001) %MON DYF_sd                       =   3.6793556934190E+01
(PID.TID 0000.0001) %MON DYG_max                      =   3.0125762848278E+02
(PID.TID 0000.0001) %MON DYG_min                      =   8.8238640898019E+01
(PID.TID 0000.0001) %MON DYG_mean                     =   1.1155719029098E+02
(PID.TID 0000.0001) %MON DYG_sd                       =   3.6793556934190E+01
(PID.TID 0000.0001) %MON DYU_max                      =   2.9634075110621E+02
(PID.TID 0000.0001) %MON DYU_min                      =   8.9727398199626E+01
(PID.TID 0000.0001) %MON DYU_mean                     =   1.1155719029098E+02
(PID.TID 0000.0001) %MON DYU_sd                       =   3.6192768205476E+01
(PID.TID 0000.0001) %MON RA_max                       =   4.9874272112175E+04
(PID.TID 0000.0001) %MON RA_min                       =   1.2380853929971E+03
(PID.TID 0000.0001) %MON RA_mean                      =   5.4342021968353E+03
(PID.TID 0000.0001) %MON RA_sd                        =   7.0085041913085E+03
(PID.TID 0000.0001) %MON RAW_max                      =   4.9874272112175E+04
(PID.TID 0000.0001) %MON RAW_min                      =   1.2494024115881E+03
(PID.TID 0000.0001) %MON RAW_mean                     =   5.4342021968353E+03
(PID.TID 0000.0001) %MON RAW_sd                       =   7.0027681826643E+03
(PID.TID 0000.0001) %MON RAS_max                      =   4.9053481559006E+04
(PID.TID 0000.0001) %MON RAS_min                      =   1.2590273371609E+03
(PID.TID 0000.0001) %MON RAS_mean                     =   5.4344585162411E+03
(PID.TID 0000.0001) %MON RAS_sd                       =   6.9905039013676E+03
(PID.TID 0000.0001) %MON RAZ_max                      =   4.9053481559006E+04
(PID.TID 0000.0001) %MON RAZ_min                      =   1.2705357806510E+03
(PID.TID 0000.0001) %MON RAZ_mean                     =   5.4344585162411E+03
(PID.TID 0000.0001) %MON RAZ_sd                       =   6.9847713393399E+03
(PID.TID 0000.0001) %MON AngleCS_max                  =   1.0000000000000E+00
(PID.TID 0000.0001) %MON AngleCS_min                  =   1.0000000000000E+00
(PID.TID 0000.0001) %MON AngleCS_mean                 =   1.0000000000000E+00
(PID.TID 0000.0001) %MON AngleCS_sd                   =   0.0000000000000E+00
(PID.TID 0000.0001) %MON AngleSN_max                  =   0.0000000000000E+00
(PID.TID 0000.0001) %MON AngleSN_min                  =   0.0000000000000E+00
(PID.TID 0000.0001) %MON AngleSN_mean                 =   0.0000000000000E+00
(PID.TID 0000.0001) %MON AngleSN_sd                   =   0.0000000000000E+00
(PID.TID 0000.0001)  nRecords =   1 ; filePrec =  64 ; fileIter =    756000
(PID.TID 0000.0001)     nDims =   2 , dims:
(PID.TID 0000.0001)    1: 944   1 944
(PID.TID 0000.0001)    2: 240   1 240
(PID.TID 0000.0001)     nFlds =   1 , nFl3D =   0 , fields:
(PID.TID 0000.0001)  >R_Shelfi<
(PID.TID 0000.0001) missingVal=  1.00000000000000E+00 ; nTimRec =   1 , timeList:
(PID.TID 0000.0001)   3.024000000000E+06
(PID.TID 0000.0001) READ_MFLDS_LEV_RS: read field: "R_Shelfi", #   1 in fldList, rec=   1
(PID.TID 0000.0001) READ_MFLDS_CHECK: - normal end ; reset MFLDS file-name: pickup_shelfice.0000756000
(PID.TID 0000.0001) GAD_INIT_FIXED: GAD_OlMinSize=  2  0  1
(PID.TID 0000.0001) 
(PID.TID 0000.0001) // ===================================
(PID.TID 0000.0001) // GAD parameters :
(PID.TID 0000.0001) // ===================================
(PID.TID 0000.0001) tempAdvScheme =   /* Temp. Horiz.Advection scheme selector */
(PID.TID 0000.0001)                      77
(PID.TID 0000.0001)     ;
(PID.TID 0000.0001) tempVertAdvScheme =   /* Temp. Vert. Advection scheme selector */
(PID.TID 0000.0001)                      77
(PID.TID 0000.0001)     ;
(PID.TID 0000.0001) tempMultiDimAdvec =   /* use Muti-Dim Advec method for Temp */
(PID.TID 0000.0001)                   T
(PID.TID 0000.0001)     ;
(PID.TID 0000.0001) tempSOM_Advection = /* use 2nd Order Moment Advection for Temp */
(PID.TID 0000.0001)                   F
(PID.TID 0000.0001)     ;
(PID.TID 0000.0001) AdamsBashforthGt = /* apply Adams-Bashforth extrapolation on Gt */
(PID.TID 0000.0001)                   F
(PID.TID 0000.0001)     ;
(PID.TID 0000.0001) AdamsBashforth_T = /* apply Adams-Bashforth extrapolation on Temp */
(PID.TID 0000.0001)                   F
(PID.TID 0000.0001)     ;
(PID.TID 0000.0001) saltAdvScheme =   /* Salt. Horiz.advection scheme selector */
(PID.TID 0000.0001)                      77
(PID.TID 0000.0001)     ;
(PID.TID 0000.0001) saltVertAdvScheme =   /* Salt. Vert. Advection scheme selector */
(PID.TID 0000.0001)                      77
(PID.TID 0000.0001)     ;
(PID.TID 0000.0001) saltMultiDimAdvec =   /* use Muti-Dim Advec method for Salt */
(PID.TID 0000.0001)                   T
(PID.TID 0000.0001)     ;
(PID.TID 0000.0001) saltSOM_Advection = /* use 2nd Order Moment Advection for Salt */
(PID.TID 0000.0001)                   F
(PID.TID 0000.0001)     ;
(PID.TID 0000.0001) AdamsBashforthGs = /* apply Adams-Bashforth extrapolation on Gs */
(PID.TID 0000.0001)                   F
(PID.TID 0000.0001)     ;
(PID.TID 0000.0001) AdamsBashforth_S = /* apply Adams-Bashforth extrapolation on Salt */
(PID.TID 0000.0001)                   F
(PID.TID 0000.0001)     ;
(PID.TID 0000.0001) // ===================================
(PID.TID 0000.0001) ------------------------------------------------------------
(PID.TID 0000.0001) DIAGNOSTICS_SET_LEVELS: done
(PID.TID 0000.0001)  Total Nb of available Diagnostics: ndiagt=   207
(PID.TID 0000.0001)  write list of available Diagnostics to file: available_diagnostics.log
(PID.TID 0000.0001) SETDIAG: Allocate  1 x  1 Levels for Diagnostic #    23 ETAN
(PID.TID 0000.0001) SETDIAG: Allocate  1 x  1 Levels for Diagnostic #    96 RSURF
(PID.TID 0000.0001) SETDIAG: Allocate  1 x  1 Levels for Diagnostic #    80 oceTAUX
(PID.TID 0000.0001) SETDIAG: Allocate  1 x  1 Levels for Diagnostic #    81 oceTAUY
(PID.TID 0000.0001) SETDIAG: Allocate  1 x  1 Levels for Diagnostic #    86 oceQnet
(PID.TID 0000.0001) SETDIAG: Allocate  1 x  1 Levels for Diagnostic #    84 oceFWflx
(PID.TID 0000.0001) SETDIAG: Allocate  1 x  1 Levels for Diagnostic #   194 SHIfwFlx
(PID.TID 0000.0001) SETDIAG: Allocate  1 x  1 Levels for Diagnostic #   195 SHIhtFlx
(PID.TID 0000.0001) SETDIAG: Allocate  1 x  1 Levels for Diagnostic #   200 SHIgammT
(PID.TID 0000.0001) SETDIAG: Allocate  1 x  1 Levels for Diagnostic #   201 SHIgammS
(PID.TID 0000.0001) SETDIAG: Allocate  1 x  1 Levels for Diagnostic #   202 SHI_mass
(PID.TID 0000.0001) SETDIAG: Allocate  1 x  1 Levels for Diagnostic #   203 SHI_dmdt
(PID.TID 0000.0001) SETDIAG: Allocate*** x  1 Levels for Diagnostic #    95 RCENTER
(PID.TID 0000.0001) SETDIAG: Allocate*** x  1 Levels for Diagnostic #   101 TOTVTEND
(PID.TID 0000.0001) SETDIAG: Allocate*** x  1 Levels for Diagnostic #    97 hFactorC
(PID.TID 0000.0001) SETDIAG: Allocate*** x  1 Levels for Diagnostic #    98 hFactorW
(PID.TID 0000.0001) SETDIAG: Allocate*** x  1 Levels for Diagnostic #    99 hFactorS
(PID.TID 0000.0001) SETDIAG: Allocate*** x  1 Levels for Diagnostic #   103 TOTSTEND
(PID.TID 0000.0001) SETDIAG: Allocate*** x  1 Levels for Diagnostic #   102 TOTTTEND
(PID.TID 0000.0001) - NOTE - SETDIAG:  Diagnostic  #    95 RCENTER  is already set
(PID.TID 0000.0001) SETDIAG: Allocate*** x  1 Levels for Diagnostic #   154 momKE
(PID.TID 0000.0001) SETDIAG: Allocate*** x  1 Levels for Diagnostic #    30 UVEL
(PID.TID 0000.0001) SETDIAG: Allocate*** x  1 Levels for Diagnostic #    31 VVEL
(PID.TID 0000.0001) SETDIAG: Allocate*** x  1 Levels for Diagnostic #    32 WVEL
(PID.TID 0000.0001) SETDIAG: Allocate*** x  1 Levels for Diagnostic #    26 THETA
(PID.TID 0000.0001) SETDIAG: Allocate*** x  1 Levels for Diagnostic #    27 SALT
(PID.TID 0000.0001) SETDIAG: Allocate*** x  1 Levels for Diagnostic #    97 hFactorC
(PID.TID 0000.0001) SETDIAG: Allocate*** x  1 Levels for Diagnostic #    98 hFactorW
(PID.TID 0000.0001) SETDIAG: Allocate*** x  1 Levels for Diagnostic #    99 hFactorS
(PID.TID 0000.0001)   space allocated for all diagnostics:   17884 levels
(PID.TID 0000.0001)   set mate pointer for diag #    80  oceTAUX  , Parms: UU      U1 , mate:    81
(PID.TID 0000.0001)   set mate pointer for diag #    81  oceTAUY  , Parms: VV      U1 , mate:    80
(PID.TID 0000.0001)   set mate pointer for diag #    98  hFactorW , Parms: SUr     MR , mate:    99
(PID.TID 0000.0001)   set mate pointer for diag #    99  hFactorS , Parms: SVr     MR , mate:    98
(PID.TID 0000.0001)   set mate pointer for diag #    30  UVEL     , Parms: UUR     MR , mate:    31
(PID.TID 0000.0001)   set mate pointer for diag #    31  VVEL     , Parms: VVR     MR , mate:    30
(PID.TID 0000.0001)   set mate pointer for diag #    98  hFactorW , Parms: SUr     MR , mate:    99
(PID.TID 0000.0001)   set mate pointer for diag #    99  hFactorS , Parms: SVr     MR , mate:    98
(PID.TID 0000.0001) DIAGNOSTICS_SET_POINTERS: Set levels for Outp.Stream: surfDiag
(PID.TID 0000.0001)  Levels:       1.
(PID.TID 0000.0001) DIAGNOSTICS_SET_POINTERS: Set levels for Outp.Stream: dynDiag
(PID.TID 0000.0001)  Levels:       1.   2.   3.   4.   5.   6.   7.   8.   9.  10.  11.  12.  13.  14.  15.  16.  17.  18.  19.  20.
(PID.TID 0000.0001)  Levels:      21.  22.  23.  24.  25.  26.  27.  28.  29.  30.  31.  32.  33.  34.  35.  36.  37.  38.  39.  40.
(PID.TID 0000.0001)  Levels:      41.  42.  43.  44.  45.  46.  47.  48.  49.  50.  51.  52.  53.  54.  55.  56.  57.  58.  59.  60.
(PID.TID 0000.0001)  Levels:      61.  62.  63.  64.  65.  66.  67.  68.  69.  70.  71.  72.  73.  74.  75.  76.  77.  78.  79.  80.
(PID.TID 0000.0001)  Levels:      81.  82.  83.  84.  85.  86.  87.  88.  89.  90.  91.  92.  93.  94.  95.  96.  97.  98.  99. 100.
(PID.TID 0000.0001)  Levels:     101. 102. 103. 104. 105. 106. 107. 108. 109. 110. 111. 112. 113. 114. 115. 116. 117. 118. 119. 120.
(PID.TID 0000.0001)  Levels:     121. 122. 123. 124. 125. 126. 127. 128. 129. 130. 131. 132. 133. 134. 135. 136. 137. 138. 139. 140.
(PID.TID 0000.0001)  Levels:     141. 142. 143. 144. 145. 146. 147. 148. 149. 150. 151. 152. 153. 154. 155. 156. 157. 158. 159. 160.
(PID.TID 0000.0001)  Levels:     161. 162. 163. 164. 165. 166. 167. 168. 169. 170. 171. 172. 173. 174. 175. 176. 177. 178. 179. 180.
(PID.TID 0000.0001)  Levels:     181. 182. 183. 184. 185. 186. 187. 188. 189. 190. 191. 192. 193. 194. 195. 196. 197. 198. 199. 200.
(PID.TID 0000.0001)  Levels:     201. 202. 203. 204. 205. 206. 207. 208. 209. 210. 211. 212. 213. 214. 215. 216. 217. 218. 219. 220.
(PID.TID 0000.0001)  Levels:     221. 222. 223. 224. 225. 226. 227. 228. 229. 230. 231. 232. 233. 234. 235. 236. 237. 238. 239. 240.
(PID.TID 0000.0001)  Levels:     241. 242. 243. 244. 245. 246. 247. 248. 249. 250. 251. 252. 253. 254. 255. 256. 257. 258. 259. 260.
(PID.TID 0000.0001)  Levels:     261. 262. 263. 264. 265. 266. 267. 268. 269. 270. 271. 272. 273. 274. 275. 276. 277. 278. 279. 280.
(PID.TID 0000.0001)  Levels:     281. 282. 283. 284. 285. 286. 287. 288. 289. 290. 291. 292. 293. 294. 295. 296. 297. 298. 299. 300.
(PID.TID 0000.0001)  Levels:     301. 302. 303. 304. 305. 306. 307. 308. 309. 310. 311. 312. 313. 314. 315. 316. 317. 318. 319. 320.
(PID.TID 0000.0001)  Levels:     321. 322. 323. 324. 325. 326. 327. 328. 329. 330. 331. 332. 333. 334. 335. 336. 337. 338. 339. 340.
(PID.TID 0000.0001)  Levels:     341. 342. 343. 344. 345. 346. 347. 348. 349. 350. 351. 352. 353. 354. 355. 356. 357. 358. 359. 360.
(PID.TID 0000.0001)  Levels:     361. 362. 363. 364. 365. 366. 367. 368. 369. 370. 371. 372. 373. 374. 375. 376. 377. 378. 379. 380.
(PID.TID 0000.0001)  Levels:     381. 382. 383. 384. 385. 386. 387. 388. 389. 390. 391. 392. 393. 394. 395. 396. 397. 398. 399. 400.
(PID.TID 0000.0001)  Levels:     401. 402. 403. 404. 405. 406. 407. 408. 409. 410. 411. 412. 413. 414. 415. 416. 417. 418. 419. 420.
(PID.TID 0000.0001)  Levels:     421. 422. 423. 424. 425. 426. 427. 428. 429. 430. 431. 432. 433. 434. 435. 436. 437. 438. 439. 440.
(PID.TID 0000.0001)  Levels:     441. 442. 443. 444. 445. 446. 447. 448. 449. 450. 451. 452. 453. 454. 455. 456. 457. 458. 459. 460.
(PID.TID 0000.0001)  Levels:     461. 462. 463. 464. 465. 466. 467. 468. 469. 470. 471. 472. 473. 474. 475. 476. 477. 478. 479. 480.
(PID.TID 0000.0001)  Levels:     481. 482. 483. 484. 485. 486. 487. 488. 489. 490. 491. 492. 493. 494. 495. 496. 497. 498. 499. 500.
(PID.TID 0000.0001)  Levels:     501. 502. 503. 504. 505. 506. 507. 508. 509. 510. 511. 512. 513. 514. 515. 516. 517. 518. 519. 520.
(PID.TID 0000.0001)  Levels:     521. 522. 523. 524. 525. 526. 527. 528. 529. 530. 531. 532. 533. 534. 535. 536. 537. 538. 539. 540.
(PID.TID 0000.0001)  Levels:     541. 542. 543. 544. 545. 546. 547. 548. 549. 550. 551. 552. 553. 554. 555. 556. 557. 558. 559. 560.
(PID.TID 0000.0001)  Levels:     561. 562. 563. 564. 565. 566. 567. 568. 569. 570. 571. 572. 573. 574. 575. 576. 577. 578. 579. 580.
(PID.TID 0000.0001)  Levels:     581. 582. 583. 584. 585. 586. 587. 588. 589. 590. 591. 592. 593. 594. 595. 596. 597. 598. 599. 600.
(PID.TID 0000.0001)  Levels:     601. 602. 603. 604. 605. 606. 607. 608. 609. 610. 611. 612. 613. 614. 615. 616. 617. 618. 619. 620.
(PID.TID 0000.0001)  Levels:     621. 622. 623. 624. 625. 626. 627. 628. 629. 630. 631. 632. 633. 634. 635. 636. 637. 638. 639. 640.
(PID.TID 0000.0001)  Levels:     641. 642. 643. 644. 645. 646. 647. 648. 649. 650. 651. 652. 653. 654. 655. 656. 657. 658. 659. 660.
(PID.TID 0000.0001)  Levels:     661. 662. 663. 664. 665. 666. 667. 668. 669. 670. 671. 672. 673. 674. 675. 676. 677. 678. 679. 680.
(PID.TID 0000.0001)  Levels:     681. 682. 683. 684. 685. 686. 687. 688. 689. 690. 691. 692. 693. 694. 695. 696. 697. 698. 699. 700.
(PID.TID 0000.0001)  Levels:     701. 702. 703. 704. 705. 706. 707. 708. 709. 710. 711. 712. 713. 714. 715. 716. 717. 718. 719. 720.
(PID.TID 0000.0001)  Levels:     721. 722. 723. 724. 725. 726. 727. 728. 729. 730. 731. 732. 733. 734. 735. 736. 737. 738. 739. 740.
(PID.TID 0000.0001)  Levels:     741. 742. 743. 744. 745. 746. 747. 748. 749. 750. 751. 752. 753. 754. 755. 756. 757. 758. 759. 760.
(PID.TID 0000.0001)  Levels:     761. 762. 763. 764. 765. 766. 767. 768. 769. 770. 771. 772. 773. 774. 775. 776. 777. 778. 779. 780.
(PID.TID 0000.0001)  Levels:     781. 782. 783. 784. 785. 786. 787. 788. 789. 790. 791. 792. 793. 794. 795. 796. 797. 798. 799. 800.
(PID.TID 0000.0001)  Levels:     801. 802. 803. 804. 805. 806. 807. 808. 809. 810. 811. 812. 813. 814. 815. 816. 817. 818. 819. 820.
(PID.TID 0000.0001)  Levels:     821. 822. 823. 824. 825. 826. 827. 828. 829. 830. 831. 832. 833. 834. 835. 836. 837. 838. 839. 840.
(PID.TID 0000.0001)  Levels:     841. 842. 843. 844. 845. 846. 847. 848. 849. 850. 851. 852. 853. 854. 855. 856. 857. 858. 859. 860.
(PID.TID 0000.0001)  Levels:     861. 862. 863. 864. 865. 866. 867. 868. 869. 870. 871. 872. 873. 874. 875. 876. 877. 878. 879. 880.
(PID.TID 0000.0001)  Levels:     881. 882. 883. 884. 885. 886. 887. 888. 889. 890. 891. 892. 893. 894. 895. 896. 897. 898. 899. 900.
(PID.TID 0000.0001)  Levels:     901. 902. 903. 904. 905. 906. 907. 908. 909. 910. 911. 912. 913. 914. 915. 916. 917. 918. 919. 920.
(PID.TID 0000.0001)  Levels:     921. 922. 923. 924. 925. 926. 927. 928. 929. 930. 931. 932. 933. 934. 935. 936. 937. 938. 939. 940.
(PID.TID 0000.0001)  Levels:     941. 942. 943. 944. 945. 946. 947. 948. 949. 950. 951. 952. 953. 954. 955. 956. 957. 958. 959. 960.
(PID.TID 0000.0001)  Levels:     961. 962. 963. 964. 965. 966. 967. 968. 969. 970. 971. 972. 973. 974. 975. 976. 977. 978. 979. 980.
(PID.TID 0000.0001)  Levels:     981. 982. 983. 984. 985. 986. 987. 988. 989. 990. 991. 992. 993. 994. 995. 996. 997. 998. 999.1000.
(PID.TID 0000.0001)  Levels:    1001.1002.1003.1004.1005.1006.1007.1008.1009.1010.1011.1012.1013.1014.1015.1016.1017.1018.1019.1020.
(PID.TID 0000.0001)  Levels:    1021.1022.1023.1024.1025.1026.1027.1028.1029.1030.1031.1032.1033.1034.1035.1036.1037.1038.1039.1040.
(PID.TID 0000.0001)  Levels:    1041.1042.1043.1044.1045.1046.1047.1048.1049.1050.1051.1052.1053.1054.1055.1056.1057.1058.1059.1060.
(PID.TID 0000.0001)  Levels:    1061.1062.1063.1064.1065.1066.1067.1068.1069.1070.1071.1072.1073.1074.1075.1076.1077.1078.1079.1080.
(PID.TID 0000.0001)  Levels:    1081.1082.1083.1084.1085.1086.1087.1088.1089.1090.1091.1092.1093.1094.1095.1096.1097.1098.1099.1100.
(PID.TID 0000.0001)  Levels:    1101.1102.1103.1104.1105.1106.1107.1108.1109.1110.1111.1112.1113.1114.1115.1116.1117.
(PID.TID 0000.0001) DIAGNOSTICS_SET_POINTERS: Set levels for Outp.Stream: dynInst
(PID.TID 0000.0001)  Levels:       1.   2.   3.   4.   5.   6.   7.   8.   9.  10.  11.  12.  13.  14.  15.  16.  17.  18.  19.  20.
(PID.TID 0000.0001)  Levels:      21.  22.  23.  24.  25.  26.  27.  28.  29.  30.  31.  32.  33.  34.  35.  36.  37.  38.  39.  40.
(PID.TID 0000.0001)  Levels:      41.  42.  43.  44.  45.  46.  47.  48.  49.  50.  51.  52.  53.  54.  55.  56.  57.  58.  59.  60.
(PID.TID 0000.0001)  Levels:      61.  62.  63.  64.  65.  66.  67.  68.  69.  70.  71.  72.  73.  74.  75.  76.  77.  78.  79.  80.
(PID.TID 0000.0001)  Levels:      81.  82.  83.  84.  85.  86.  87.  88.  89.  90.  91.  92.  93.  94.  95.  96.  97.  98.  99. 100.
(PID.TID 0000.0001)  Levels:     101. 102. 103. 104. 105. 106. 107. 108. 109. 110. 111. 112. 113. 114. 115. 116. 117. 118. 119. 120.
(PID.TID 0000.0001)  Levels:     121. 122. 123. 124. 125. 126. 127. 128. 129. 130. 131. 132. 133. 134. 135. 136. 137. 138. 139. 140.
(PID.TID 0000.0001)  Levels:     141. 142. 143. 144. 145. 146. 147. 148. 149. 150. 151. 152. 153. 154. 155. 156. 157. 158. 159. 160.
(PID.TID 0000.0001)  Levels:     161. 162. 163. 164. 165. 166. 167. 168. 169. 170. 171. 172. 173. 174. 175. 176. 177. 178. 179. 180.
(PID.TID 0000.0001)  Levels:     181. 182. 183. 184. 185. 186. 187. 188. 189. 190. 191. 192. 193. 194. 195. 196. 197. 198. 199. 200.
(PID.TID 0000.0001)  Levels:     201. 202. 203. 204. 205. 206. 207. 208. 209. 210. 211. 212. 213. 214. 215. 216. 217. 218. 219. 220.
(PID.TID 0000.0001)  Levels:     221. 222. 223. 224. 225. 226. 227. 228. 229. 230. 231. 232. 233. 234. 235. 236. 237. 238. 239. 240.
(PID.TID 0000.0001)  Levels:     241. 242. 243. 244. 245. 246. 247. 248. 249. 250. 251. 252. 253. 254. 255. 256. 257. 258. 259. 260.
(PID.TID 0000.0001)  Levels:     261. 262. 263. 264. 265. 266. 267. 268. 269. 270. 271. 272. 273. 274. 275. 276. 277. 278. 279. 280.
(PID.TID 0000.0001)  Levels:     281. 282. 283. 284. 285. 286. 287. 288. 289. 290. 291. 292. 293. 294. 295. 296. 297. 298. 299. 300.
(PID.TID 0000.0001)  Levels:     301. 302. 303. 304. 305. 306. 307. 308. 309. 310. 311. 312. 313. 314. 315. 316. 317. 318. 319. 320.
(PID.TID 0000.0001)  Levels:     321. 322. 323. 324. 325. 326. 327. 328. 329. 330. 331. 332. 333. 334. 335. 336. 337. 338. 339. 340.
(PID.TID 0000.0001)  Levels:     341. 342. 343. 344. 345. 346. 347. 348. 349. 350. 351. 352. 353. 354. 355. 356. 357. 358. 359. 360.
(PID.TID 0000.0001)  Levels:     361. 362. 363. 364. 365. 366. 367. 368. 369. 370. 371. 372. 373. 374. 375. 376. 377. 378. 379. 380.
(PID.TID 0000.0001)  Levels:     381. 382. 383. 384. 385. 386. 387. 388. 389. 390. 391. 392. 393. 394. 395. 396. 397. 398. 399. 400.
(PID.TID 0000.0001)  Levels:     401. 402. 403. 404. 405. 406. 407. 408. 409. 410. 411. 412. 413. 414. 415. 416. 417. 418. 419. 420.
(PID.TID 0000.0001)  Levels:     421. 422. 423. 424. 425. 426. 427. 428. 429. 430. 431. 432. 433. 434. 435. 436. 437. 438. 439. 440.
(PID.TID 0000.0001)  Levels:     441. 442. 443. 444. 445. 446. 447. 448. 449. 450. 451. 452. 453. 454. 455. 456. 457. 458. 459. 460.
(PID.TID 0000.0001)  Levels:     461. 462. 463. 464. 465. 466. 467. 468. 469. 470. 471. 472. 473. 474. 475. 476. 477. 478. 479. 480.
(PID.TID 0000.0001)  Levels:     481. 482. 483. 484. 485. 486. 487. 488. 489. 490. 491. 492. 493. 494. 495. 496. 497. 498. 499. 500.
(PID.TID 0000.0001)  Levels:     501. 502. 503. 504. 505. 506. 507. 508. 509. 510. 511. 512. 513. 514. 515. 516. 517. 518. 519. 520.
(PID.TID 0000.0001)  Levels:     521. 522. 523. 524. 525. 526. 527. 528. 529. 530. 531. 532. 533. 534. 535. 536. 537. 538. 539. 540.
(PID.TID 0000.0001)  Levels:     541. 542. 543. 544. 545. 546. 547. 548. 549. 550. 551. 552. 553. 554. 555. 556. 557. 558. 559. 560.
(PID.TID 0000.0001)  Levels:     561. 562. 563. 564. 565. 566. 567. 568. 569. 570. 571. 572. 573. 574. 575. 576. 577. 578. 579. 580.
(PID.TID 0000.0001)  Levels:     581. 582. 583. 584. 585. 586. 587. 588. 589. 590. 591. 592. 593. 594. 595. 596. 597. 598. 599. 600.
(PID.TID 0000.0001)  Levels:     601. 602. 603. 604. 605. 606. 607. 608. 609. 610. 611. 612. 613. 614. 615. 616. 617. 618. 619. 620.
(PID.TID 0000.0001)  Levels:     621. 622. 623. 624. 625. 626. 627. 628. 629. 630. 631. 632. 633. 634. 635. 636. 637. 638. 639. 640.
(PID.TID 0000.0001)  Levels:     641. 642. 643. 644. 645. 646. 647. 648. 649. 650. 651. 652. 653. 654. 655. 656. 657. 658. 659. 660.
(PID.TID 0000.0001)  Levels:     661. 662. 663. 664. 665. 666. 667. 668. 669. 670. 671. 672. 673. 674. 675. 676. 677. 678. 679. 680.
(PID.TID 0000.0001)  Levels:     681. 682. 683. 684. 685. 686. 687. 688. 689. 690. 691. 692. 693. 694. 695. 696. 697. 698. 699. 700.
(PID.TID 0000.0001)  Levels:     701. 702. 703. 704. 705. 706. 707. 708. 709. 710. 711. 712. 713. 714. 715. 716. 717. 718. 719. 720.
(PID.TID 0000.0001)  Levels:     721. 722. 723. 724. 725. 726. 727. 728. 729. 730. 731. 732. 733. 734. 735. 736. 737. 738. 739. 740.
(PID.TID 0000.0001)  Levels:     741. 742. 743. 744. 745. 746. 747. 748. 749. 750. 751. 752. 753. 754. 755. 756. 757. 758. 759. 760.
(PID.TID 0000.0001)  Levels:     761. 762. 763. 764. 765. 766. 767. 768. 769. 770. 771. 772. 773. 774. 775. 776. 777. 778. 779. 780.
(PID.TID 0000.0001)  Levels:     781. 782. 783. 784. 785. 786. 787. 788. 789. 790. 791. 792. 793. 794. 795. 796. 797. 798. 799. 800.
(PID.TID 0000.0001)  Levels:     801. 802. 803. 804. 805. 806. 807. 808. 809. 810. 811. 812. 813. 814. 815. 816. 817. 818. 819. 820.
(PID.TID 0000.0001)  Levels:     821. 822. 823. 824. 825. 826. 827. 828. 829. 830. 831. 832. 833. 834. 835. 836. 837. 838. 839. 840.
(PID.TID 0000.0001)  Levels:     841. 842. 843. 844. 845. 846. 847. 848. 849. 850. 851. 852. 853. 854. 855. 856. 857. 858. 859. 860.
(PID.TID 0000.0001)  Levels:     861. 862. 863. 864. 865. 866. 867. 868. 869. 870. 871. 872. 873. 874. 875. 876. 877. 878. 879. 880.
(PID.TID 0000.0001)  Levels:     881. 882. 883. 884. 885. 886. 887. 888. 889. 890. 891. 892. 893. 894. 895. 896. 897. 898. 899. 900.
(PID.TID 0000.0001)  Levels:     901. 902. 903. 904. 905. 906. 907. 908. 909. 910. 911. 912. 913. 914. 915. 916. 917. 918. 919. 920.
(PID.TID 0000.0001)  Levels:     921. 922. 923. 924. 925. 926. 927. 928. 929. 930. 931. 932. 933. 934. 935. 936. 937. 938. 939. 940.
(PID.TID 0000.0001)  Levels:     941. 942. 943. 944. 945. 946. 947. 948. 949. 950. 951. 952. 953. 954. 955. 956. 957. 958. 959. 960.
(PID.TID 0000.0001)  Levels:     961. 962. 963. 964. 965. 966. 967. 968. 969. 970. 971. 972. 973. 974. 975. 976. 977. 978. 979. 980.
(PID.TID 0000.0001)  Levels:     981. 982. 983. 984. 985. 986. 987. 988. 989. 990. 991. 992. 993. 994. 995. 996. 997. 998. 999.1000.
(PID.TID 0000.0001)  Levels:    1001.1002.1003.1004.1005.1006.1007.1008.1009.1010.1011.1012.1013.1014.1015.1016.1017.1018.1019.1020.
(PID.TID 0000.0001)  Levels:    1021.1022.1023.1024.1025.1026.1027.1028.1029.1030.1031.1032.1033.1034.1035.1036.1037.1038.1039.1040.
(PID.TID 0000.0001)  Levels:    1041.1042.1043.1044.1045.1046.1047.1048.1049.1050.1051.1052.1053.1054.1055.1056.1057.1058.1059.1060.
(PID.TID 0000.0001)  Levels:    1061.1062.1063.1064.1065.1066.1067.1068.1069.1070.1071.1072.1073.1074.1075.1076.1077.1078.1079.1080.
(PID.TID 0000.0001)  Levels:    1081.1082.1083.1084.1085.1086.1087.1088.1089.1090.1091.1092.1093.1094.1095.1096.1097.1098.1099.1100.
(PID.TID 0000.0001)  Levels:    1101.1102.1103.1104.1105.1106.1107.1108.1109.1110.1111.1112.1113.1114.1115.1116.1117.
(PID.TID 0000.0001) DIAGNOSTICS_SET_POINTERS: done
(PID.TID 0000.0001) ------------------------------------------------------------
 DIAGSTATS_SET_REGIONS: start reading region-mask file: under_Ice_mask.bin
 DIAGSTATS_SET_REGIONS:  reading set k=  1
 DIAGSTATS_SET_REGIONS:          set k=  1 <= done
(PID.TID 0000.0001) DIAGSTATS_SET_REGIONS: define   2 regions:  1  2
(PID.TID 0000.0001) ------------------------------------------------------------
(PID.TID 0000.0001) SETDIAG: Allocate  1 Levels for Stats-Diag #    23 ETAN
(PID.TID 0000.0001) SETDIAG: Allocate*** Levels for Stats-Diag #    26 THETA
(PID.TID 0000.0001) SETDIAG: Allocate*** Levels for Stats-Diag #    27 SALT
(PID.TID 0000.0001) SETDIAG: Allocate*** Levels for Stats-Diag #    30 UVEL
(PID.TID 0000.0001) SETDIAG: Allocate*** Levels for Stats-Diag #    31 VVEL
(PID.TID 0000.0001) SETDIAG: Allocate*** Levels for Stats-Diag #    32 WVEL
(PID.TID 0000.0001) SETDIAG: Allocate  1 Levels for Stats-Diag #    23 ETAN
(PID.TID 0000.0001) SETDIAG: Allocate  1 Levels for Stats-Diag #    96 RSURF
(PID.TID 0000.0001)   space allocated for all stats-diags:    5588 levels
(PID.TID 0000.0001) DIAGSTATS_SET_POINTERS: done
(PID.TID 0000.0001) ------------------------------------------------------------
(PID.TID 0000.0001) DIAGSTATS_INI_IO: open file: dynStDiag.0000756000.txt , unit=     9
(PID.TID 0000.0001) DIAGSTATS_INI_IO: open file: surfStDiag.0000756000.txt , unit=    10
(PID.TID 0000.0001) Empty tile bi,bj=     1     1
(PID.TID 0000.0001) 
(PID.TID 0000.0001) %MON fCori_max                    =   1.4392151255922E-04
(PID.TID 0000.0001) %MON fCori_min                    =   1.4382184007715E-04
(PID.TID 0000.0001) %MON fCori_mean                   =   1.4387656387732E-04
(PID.TID 0000.0001) %MON fCori_sd                     =   2.6656970659746E-08
(PID.TID 0000.0001) %MON fCoriG_max                   =   1.4392132773722E-04
(PID.TID 0000.0001) %MON fCoriG_min                   =   1.4382126795327E-04
(PID.TID 0000.0001) %MON fCoriG_mean                  =   1.4387635464325E-04
(PID.TID 0000.0001) %MON fCoriG_sd                    =   2.6696918784112E-08
(PID.TID 0000.0001) %MON fCoriCos_max                 =   2.4193066602670E-05
(PID.TID 0000.0001) %MON fCoriCos_min                 =   2.3592888281912E-05
(PID.TID 0000.0001) %MON fCoriCos_mean                =   2.3864911490090E-05
(PID.TID 0000.0001) %MON fCoriCos_sd                  =   1.6065693072522E-07
(PID.TID 0000.0001) INI_CG2D: CG2D normalisation factor =  1.8454497524423839E-04
(PID.TID 0000.0001) 
(PID.TID 0000.0001) // =======================================================
(PID.TID 0000.0001) // Model configuration
(PID.TID 0000.0001) // =======================================================
(PID.TID 0000.0001) //
(PID.TID 0000.0001) // "Physical" paramters ( PARM01 in namelist )
(PID.TID 0000.0001) //
(PID.TID 0000.0001) buoyancyRelation = /* Type of relation to get Buoyancy */
(PID.TID 0000.0001)               'OCEANIC'
(PID.TID 0000.0001)     ;
(PID.TID 0000.0001) fluidIsAir   =  /* fluid major constituent is Air */
(PID.TID 0000.0001)                   F
(PID.TID 0000.0001)     ;
(PID.TID 0000.0001) fluidIsWater =  /* fluid major constituent is Water */
(PID.TID 0000.0001)                   T
(PID.TID 0000.0001)     ;
(PID.TID 0000.0001) usingPCoords =  /* use p (or p*) vertical coordinate */
(PID.TID 0000.0001)                   F
(PID.TID 0000.0001)     ;
(PID.TID 0000.0001) usingZCoords =  /* use z (or z*) vertical coordinate */
(PID.TID 0000.0001)                   T
(PID.TID 0000.0001)     ;
(PID.TID 0000.0001) tRef =   /* Reference temperature profile ( oC or K ) */
(PID.TID 0000.0001)  1117 @ -2.000000000000000E-01              /* K =   1:1117 */
(PID.TID 0000.0001)     ;
(PID.TID 0000.0001) sRef =   /* Reference salinity profile ( g/kg ) */
(PID.TID 0000.0001)  1117 @  3.420000000000000E+01              /* K =   1:1117 */
(PID.TID 0000.0001)     ;
(PID.TID 0000.0001) useStrainTensionVisc= /* Use StrainTension Form of Viscous Operator */
(PID.TID 0000.0001)                   F
(PID.TID 0000.0001)     ;
(PID.TID 0000.0001) useVariableVisc = /* Use variable horizontal viscosity */
(PID.TID 0000.0001)                   F
(PID.TID 0000.0001)     ;
(PID.TID 0000.0001) useHarmonicVisc = /* Use harmonic horizontal viscosity */
(PID.TID 0000.0001)                   T
(PID.TID 0000.0001)     ;
(PID.TID 0000.0001) useBiharmonicVisc= /* Use biharmonic horiz.  viscosity */
(PID.TID 0000.0001)                   T
(PID.TID 0000.0001)     ;
(PID.TID 0000.0001) useSmag3D = /* Use isotropic 3-D Smagorinsky viscosity */
(PID.TID 0000.0001)                   F
(PID.TID 0000.0001)     ;
(PID.TID 0000.0001) viscAh  =   /* Lateral harmonic viscosity ( m^2/s ) */
(PID.TID 0000.0001)                 1.000000000000000E+01
(PID.TID 0000.0001)     ;
(PID.TID 0000.0001) viscA4  =   /* Lateral biharmonic viscosity ( m^4/s ) */
(PID.TID 0000.0001)                 2.500000000000000E+00
(PID.TID 0000.0001)     ;
(PID.TID 0000.0001) no_slip_sides =  /* Viscous BCs: No-slip sides */
(PID.TID 0000.0001)                   F
(PID.TID 0000.0001)     ;
(PID.TID 0000.0001) sideDragFactor = /* side-drag scaling factor (non-dim) */
(PID.TID 0000.0001)                 2.000000000000000E+00
(PID.TID 0000.0001)     ;
(PID.TID 0000.0001) viscArNr = /* vertical profile of vertical viscosity ( m^2/s )*/
(PID.TID 0000.0001)  1117 @  4.000000000000000E-02              /* K =   1:1117 */
(PID.TID 0000.0001)     ;
(PID.TID 0000.0001) no_slip_bottom =  /* Viscous BCs: No-slip bottom */
(PID.TID 0000.0001)                   F
(PID.TID 0000.0001)     ;
(PID.TID 0000.0001) bottomVisc_pCell = /* Partial-cell in bottom Visc. BC */
(PID.TID 0000.0001)                   F
(PID.TID 0000.0001)     ;
(PID.TID 0000.0001) bottomDragLinear = /* linear bottom-drag coefficient ( m/s ) */
(PID.TID 0000.0001)                 0.000000000000000E+00
(PID.TID 0000.0001)     ;
(PID.TID 0000.0001) bottomDragQuadratic = /* quadratic bottom-drag coefficient (-) */
(PID.TID 0000.0001)                 2.500000000000000E-03
(PID.TID 0000.0001)     ;
(PID.TID 0000.0001) selectBotDragQuadr = /* select quadratic bottom drag options */
(PID.TID 0000.0001)                       1
(PID.TID 0000.0001)     ;
(PID.TID 0000.0001) diffKhT =   /* Laplacian diffusion of heat laterally ( m^2/s ) */
(PID.TID 0000.0001)                 0.000000000000000E+00
(PID.TID 0000.0001)     ;
(PID.TID 0000.0001) diffK4T =   /* Biharmonic diffusion of heat laterally ( m^4/s ) */
(PID.TID 0000.0001)                 0.000000000000000E+00
(PID.TID 0000.0001)     ;
(PID.TID 0000.0001) diffKhS =   /* Laplacian diffusion of salt laterally ( m^2/s ) */
(PID.TID 0000.0001)                 0.000000000000000E+00
(PID.TID 0000.0001)     ;
(PID.TID 0000.0001) diffK4S =   /* Biharmonic diffusion of salt laterally ( m^4/s ) */
(PID.TID 0000.0001)                 0.000000000000000E+00
(PID.TID 0000.0001)     ;
(PID.TID 0000.0001) diffKrNrT = /* vertical profile of vertical diffusion of Temp ( m^2/s )*/
(PID.TID 0000.0001)  1117 @  2.800000000000000E-04              /* K =   1:1117 */
(PID.TID 0000.0001)     ;
(PID.TID 0000.0001) diffKrNrS = /* vertical profile of vertical diffusion of Salt ( m^2/s )*/
(PID.TID 0000.0001)  1117 @  2.800000000000000E-04              /* K =   1:1117 */
(PID.TID 0000.0001)     ;
(PID.TID 0000.0001) diffKrBL79surf = /* Surface diffusion for Bryan and Lewis 79 ( m^2/s ) */
(PID.TID 0000.0001)                 0.000000000000000E+00
(PID.TID 0000.0001)     ;
(PID.TID 0000.0001) diffKrBL79deep = /* Deep diffusion for Bryan and Lewis 1979 ( m^2/s ) */
(PID.TID 0000.0001)                 0.000000000000000E+00
(PID.TID 0000.0001)     ;
(PID.TID 0000.0001) diffKrBL79scl = /* Depth scale for Bryan and Lewis 1979 ( m ) */
(PID.TID 0000.0001)                 2.000000000000000E+02
(PID.TID 0000.0001)     ;
(PID.TID 0000.0001) diffKrBL79Ho = /* Turning depth for Bryan and Lewis 1979 ( m ) */
(PID.TID 0000.0001)                -2.000000000000000E+03
(PID.TID 0000.0001)     ;
(PID.TID 0000.0001) ivdc_kappa = /* Implicit Vertical Diffusivity for Convection ( m^2/s) */
(PID.TID 0000.0001)                 1.000000000000000E+00
(PID.TID 0000.0001)     ;
(PID.TID 0000.0001) hMixCriteria=  /* Criteria for mixed-layer diagnostic */
(PID.TID 0000.0001)                -8.000000000000000E-01
(PID.TID 0000.0001)     ;
(PID.TID 0000.0001) dRhoSmall =  /* Parameter for mixed-layer diagnostic */
(PID.TID 0000.0001)                 1.000000000000000E-06
(PID.TID 0000.0001)     ;
(PID.TID 0000.0001) hMixSmooth=  /* Smoothing parameter for mixed-layer diagnostic */
(PID.TID 0000.0001)                 0.000000000000000E+00
(PID.TID 0000.0001)     ;
(PID.TID 0000.0001) eosType =  /* Type of Equation of State */
(PID.TID 0000.0001)               'JMD95Z'
(PID.TID 0000.0001)     ;
(PID.TID 0000.0001) eosRefP0 = /* Reference atmospheric pressure for EOS ( Pa ) */
(PID.TID 0000.0001)                 1.013250000000000E+05
(PID.TID 0000.0001)     ;
(PID.TID 0000.0001) selectP_inEOS_Zc = /* select pressure to use in EOS (0,1,2,3) */
(PID.TID 0000.0001)                       0
(PID.TID 0000.0001)     0= -g*rhoConst*z ; 1= pRef (from tRef,sRef); 2= Hyd P ; 3= Hyd+NH P
(PID.TID 0000.0001)     ;
(PID.TID 0000.0001) surf_pRef = /* Surface reference pressure ( Pa ) */
(PID.TID 0000.0001)                 1.013250000000000E+05
(PID.TID 0000.0001)     ;
(PID.TID 0000.0001) HeatCapacity_Cp =  /* Specific heat capacity ( J/kg/K ) */
(PID.TID 0000.0001)                 3.974000000000000E+03
(PID.TID 0000.0001)     ;
(PID.TID 0000.0001) celsius2K = /* 0 degree Celsius converted to Kelvin ( K ) */
(PID.TID 0000.0001)                 2.731500000000000E+02
(PID.TID 0000.0001)     ;
(PID.TID 0000.0001) rhoConst  = /* Reference density (Boussinesq)  ( kg/m^3 ) */
(PID.TID 0000.0001)                 1.030000000000000E+03
(PID.TID 0000.0001)     ;
(PID.TID 0000.0001) rhoFacC = /* normalized Reference density @ cell-Center (-) */
(PID.TID 0000.0001)  1117 @  1.000000000000000E+00              /* K =   1:1117 */
(PID.TID 0000.0001)     ;
(PID.TID 0000.0001) rhoFacF = /* normalized Reference density @ W-Interface (-) */
(PID.TID 0000.0001)  1118 @  1.000000000000000E+00              /* K =   1:1118 */
(PID.TID 0000.0001)     ;
(PID.TID 0000.0001) rhoConstFresh = /* Fresh-water reference density ( kg/m^3 ) */
(PID.TID 0000.0001)                 1.030000000000000E+03
(PID.TID 0000.0001)     ;
(PID.TID 0000.0001) gravity =   /* Gravitational acceleration ( m/s^2 ) */
(PID.TID 0000.0001)                 9.810000000000000E+00
(PID.TID 0000.0001)     ;
(PID.TID 0000.0001) gBaro =   /* Barotropic gravity ( m/s^2 ) */
(PID.TID 0000.0001)                 9.810000000000000E+00
(PID.TID 0000.0001)     ;
(PID.TID 0000.0001) gravFacC = /* gravity factor (vs surf.) @ cell-Center (-) */
(PID.TID 0000.0001)  1117 @  1.000000000000000E+00              /* K =   1:1117 */
(PID.TID 0000.0001)     ;
(PID.TID 0000.0001) gravFacF = /* gravity factor (vs surf.) @ W-Interface (-) */
(PID.TID 0000.0001)  1118 @  1.000000000000000E+00              /* K =   1:1118 */
(PID.TID 0000.0001)     ;
(PID.TID 0000.0001) rotationPeriod =   /* Rotation Period ( s ) */
(PID.TID 0000.0001)                 8.616400000000000E+04
(PID.TID 0000.0001)     ;
(PID.TID 0000.0001) omega =   /* Angular velocity ( rad/s ) */
(PID.TID 0000.0001)                 7.292123516990375E-05
(PID.TID 0000.0001)     ;
(PID.TID 0000.0001) f0 =   /* Reference coriolis parameter ( 1/s ) */
(PID.TID 0000.0001)                 1.000000000000000E-04
(PID.TID 0000.0001)     ;
(PID.TID 0000.0001) beta =   /* Beta ( 1/(m.s) ) */
(PID.TID 0000.0001)                 9.999999999999999E-12
(PID.TID 0000.0001)     ;
(PID.TID 0000.0001) fPrime =   /* Second coriolis parameter ( 1/s ) */
(PID.TID 0000.0001)                 0.000000000000000E+00
(PID.TID 0000.0001)     ;
(PID.TID 0000.0001) rigidLid =   /* Rigid lid on/off flag */
(PID.TID 0000.0001)                   F
(PID.TID 0000.0001)     ;
(PID.TID 0000.0001) implicitFreeSurface =   /* Implicit free surface on/off flag */
(PID.TID 0000.0001)                   T
(PID.TID 0000.0001)     ;
(PID.TID 0000.0001) freeSurfFac =   /* Implicit free surface factor */
(PID.TID 0000.0001)                 1.000000000000000E+00
(PID.TID 0000.0001)     ;
(PID.TID 0000.0001) implicSurfPress =  /* Surface Pressure implicit factor (0-1) */
(PID.TID 0000.0001)                 1.000000000000000E+00
(PID.TID 0000.0001)     ;
(PID.TID 0000.0001) implicDiv2DFlow =  /* Barot. Flow Div. implicit factor (0-1) */
(PID.TID 0000.0001)                 1.000000000000000E+00
(PID.TID 0000.0001)     ;
(PID.TID 0000.0001) uniformLin_PhiSurf = /* use uniform Bo_surf on/off flag */
(PID.TID 0000.0001)                   T
(PID.TID 0000.0001)     ;
(PID.TID 0000.0001) uniformFreeSurfLev = /* free-surface level-index is uniform */
(PID.TID 0000.0001)                   F
(PID.TID 0000.0001)     ;
(PID.TID 0000.0001) sIceLoadFac =  /* scale factor for sIceLoad (0-1) */
(PID.TID 0000.0001)                 1.000000000000000E+00
(PID.TID 0000.0001)     ;
(PID.TID 0000.0001) hFacMin =   /* minimum partial cell factor (hFac) */
(PID.TID 0000.0001)                 1.000000000000000E-01
(PID.TID 0000.0001)     ;
(PID.TID 0000.0001) hFacMinDr = /* minimum partial cell thickness ( m) */
(PID.TID 0000.0001)                 0.000000000000000E+00
(PID.TID 0000.0001)     ;
(PID.TID 0000.0001) exactConserv =  /* Exact Volume Conservation on/off flag */
(PID.TID 0000.0001)                   T
(PID.TID 0000.0001)     ;
(PID.TID 0000.0001) linFSConserveTr = /* Tracer correction for Lin Free Surface on/off flag */
(PID.TID 0000.0001)                   F
(PID.TID 0000.0001)     ;
(PID.TID 0000.0001) nonlinFreeSurf = /* Non-linear Free Surf. options (-1,0,1,2,3)*/
(PID.TID 0000.0001)                       4
(PID.TID 0000.0001)      -1,0= Off ; 1,2,3= On, 2=+rescale gU,gV, 3=+update cg2d solv.
(PID.TID 0000.0001)     ;
(PID.TID 0000.0001) hFacInf =   /* lower threshold for hFac (nonlinFreeSurf only)*/
(PID.TID 0000.0001)                 5.000000000000000E-02
(PID.TID 0000.0001)     ;
(PID.TID 0000.0001) hFacSup =   /* upper threshold for hFac (nonlinFreeSurf only)*/
(PID.TID 0000.0001)                 2.000000000000000E+00
(PID.TID 0000.0001)     ;
(PID.TID 0000.0001) select_rStar = /* r* Vertical coord. options (=0 r coord.; >0 uses r*)*/
(PID.TID 0000.0001)                       0
(PID.TID 0000.0001)     ;
(PID.TID 0000.0001) useRealFreshWaterFlux = /* Real Fresh Water Flux on/off flag*/
(PID.TID 0000.0001)                   T
(PID.TID 0000.0001)     ;
(PID.TID 0000.0001) temp_EvPrRn = /* Temp. of Evap/Prec/R (UNSET=use local T)(oC)*/
(PID.TID 0000.0001)                 1.234567000000000E+05
(PID.TID 0000.0001)     ;
(PID.TID 0000.0001) salt_EvPrRn = /* Salin. of Evap/Prec/R (UNSET=use local S)(g/kg)*/
(PID.TID 0000.0001)                 0.000000000000000E+00
(PID.TID 0000.0001)     ;
(PID.TID 0000.0001) selectAddFluid = /* option for mass source/sink of fluid (=0: off) */
(PID.TID 0000.0001)                       0
(PID.TID 0000.0001)     ;
(PID.TID 0000.0001) temp_addMass = /* Temp. of addMass array (UNSET=use local T)(oC)*/
(PID.TID 0000.0001)                 1.234567000000000E+05
(PID.TID 0000.0001)     ;
(PID.TID 0000.0001) salt_addMass = /* Salin. of addMass array (UNSET=use local S)(g/kg)*/
(PID.TID 0000.0001)                 0.000000000000000E+00
(PID.TID 0000.0001)     ;
(PID.TID 0000.0001) use3Dsolver = /* use 3-D pressure solver on/off flag */
(PID.TID 0000.0001)                   F
(PID.TID 0000.0001)     ;
(PID.TID 0000.0001) nonHydrostatic =  /* Non-Hydrostatic on/off flag */
(PID.TID 0000.0001)                   F
(PID.TID 0000.0001)     ;
(PID.TID 0000.0001) nh_Am2 = /* Non-Hydrostatic terms scaling factor */
(PID.TID 0000.0001)                 1.000000000000000E+00
(PID.TID 0000.0001)     ;
(PID.TID 0000.0001) implicitNHPress = /* Non-Hyd Pressure implicit factor (0-1)*/
(PID.TID 0000.0001)                 1.000000000000000E+00
(PID.TID 0000.0001)     ;
(PID.TID 0000.0001) selectNHfreeSurf = /* Non-Hyd (free-)Surface option */
(PID.TID 0000.0001)                       0
(PID.TID 0000.0001)     ;
(PID.TID 0000.0001) quasiHydrostatic = /* Quasi-Hydrostatic on/off flag */
(PID.TID 0000.0001)                   F
(PID.TID 0000.0001)     ;
(PID.TID 0000.0001) calc_wVelocity = /* vertical velocity calculation on/off flag */
(PID.TID 0000.0001)                   T
(PID.TID 0000.0001)     ;
(PID.TID 0000.0001) momStepping =  /* Momentum equation on/off flag */
(PID.TID 0000.0001)                   T
(PID.TID 0000.0001)     ;
(PID.TID 0000.0001) vectorInvariantMomentum= /* Vector-Invariant Momentum on/off */
(PID.TID 0000.0001)                   T
(PID.TID 0000.0001)     ;
(PID.TID 0000.0001) momAdvection =  /* Momentum advection on/off flag */
(PID.TID 0000.0001)                   T
(PID.TID 0000.0001)     ;
(PID.TID 0000.0001) momViscosity =  /* Momentum viscosity on/off flag */
(PID.TID 0000.0001)                   T
(PID.TID 0000.0001)     ;
(PID.TID 0000.0001) momImplVertAdv= /* Momentum implicit vert. advection on/off*/
(PID.TID 0000.0001)                   F
(PID.TID 0000.0001)     ;
(PID.TID 0000.0001) implicitViscosity = /* Implicit viscosity on/off flag */
(PID.TID 0000.0001)                   T
(PID.TID 0000.0001)     ;
(PID.TID 0000.0001) selectImplicitDrag= /* Implicit bot Drag options (0,1,2)*/
(PID.TID 0000.0001)                       2
(PID.TID 0000.0001)     0= Expl. ; 1= Impl. on provis. Vel ; 2= Fully Impl (with surf.P)
(PID.TID 0000.0001)     ;
(PID.TID 0000.0001) metricTerms =  /* metric-Terms on/off flag */
(PID.TID 0000.0001)                   T
(PID.TID 0000.0001)     ;
(PID.TID 0000.0001) useNHMTerms = /* Non-Hydrostatic Metric-Terms on/off */
(PID.TID 0000.0001)                   F
(PID.TID 0000.0001)     ;
(PID.TID 0000.0001) selectCoriMap = /* Coriolis Map options (0,1,2,3)*/
(PID.TID 0000.0001)                       2
(PID.TID 0000.0001)     0= f-Plane ; 1= Beta-Plane ; 2= Spherical ; 3= read from file
(PID.TID 0000.0001)     ;
(PID.TID 0000.0001) use3dCoriolis = /* 3-D Coriolis on/off flag */
(PID.TID 0000.0001)                   F
(PID.TID 0000.0001)     ;
(PID.TID 0000.0001) useCoriolis =  /* Coriolis on/off flag */
(PID.TID 0000.0001)                   T
(PID.TID 0000.0001)     ;
(PID.TID 0000.0001) useCDscheme =  /* CD scheme on/off flag */
(PID.TID 0000.0001)                   F
(PID.TID 0000.0001)     ;
(PID.TID 0000.0001) selectCoriScheme= /* Scheme selector for Coriolis-Term */
(PID.TID 0000.0001)                       0
(PID.TID 0000.0001)    = 0 : original discretization (simple averaging, no hFac)
(PID.TID 0000.0001)    = 1 : Wet-point averaging (Jamar & Ozer 1986)
(PID.TID 0000.0001)    = 2 : hFac weighted average (Angular Mom. conserving)
(PID.TID 0000.0001)    = 3 : energy conserving scheme using hFac weighted average
(PID.TID 0000.0001)     ;
(PID.TID 0000.0001) useAbsVorticity= /* V.I Works with f+zeta in Coriolis */
(PID.TID 0000.0001)                   F
(PID.TID 0000.0001)     ;
(PID.TID 0000.0001) selectVortScheme= /* V.I Scheme selector for Vorticity-Term */
(PID.TID 0000.0001)                       1
(PID.TID 0000.0001)    = 0 : enstrophy (Shallow-Water Eq.) conserving scheme by Sadourny, JAS 75
(PID.TID 0000.0001)    = 1 : same as 0 with modified hFac
(PID.TID 0000.0001)    = 2 : energy conserving scheme (used by Sadourny in JAS 75 paper)
(PID.TID 0000.0001)    = 3 : energy (general) and enstrophy (2D, nonDiv.) conserving scheme
(PID.TID 0000.0001)          from Sadourny (Burridge & Haseler, ECMWF Rep.4, 1977)
(PID.TID 0000.0001)     ;
(PID.TID 0000.0001) useJamartMomAdv= /* V.I Non-linear terms Jamart flag */
(PID.TID 0000.0001)                   F
(PID.TID 0000.0001)     ;
(PID.TID 0000.0001) upwindVorticity= /* V.I Upwind bias vorticity flag */
(PID.TID 0000.0001)                   F
(PID.TID 0000.0001)     ;
(PID.TID 0000.0001) highOrderVorticity= /* V.I High order vort. advect. flag */
(PID.TID 0000.0001)                   F
(PID.TID 0000.0001)     ;
(PID.TID 0000.0001) upwindShear= /* V.I Upwind vertical Shear advection flag */
(PID.TID 0000.0001)                   F
(PID.TID 0000.0001)     ;
(PID.TID 0000.0001) selectKEscheme= /* V.I Kinetic Energy scheme selector */
(PID.TID 0000.0001)                       0
(PID.TID 0000.0001)     ;
(PID.TID 0000.0001) momForcing =  /* Momentum forcing on/off flag */
(PID.TID 0000.0001)                   T
(PID.TID 0000.0001)     ;
(PID.TID 0000.0001) momTidalForcing = /* Momentum Tidal forcing on/off flag */
(PID.TID 0000.0001)                   T
(PID.TID 0000.0001)     ;
(PID.TID 0000.0001) momPressureForcing =  /* Momentum pressure term on/off flag */
(PID.TID 0000.0001)                   T
(PID.TID 0000.0001)     ;
(PID.TID 0000.0001) implicitIntGravWave= /* Implicit Internal Gravity Wave flag */
(PID.TID 0000.0001)                   F
(PID.TID 0000.0001)     ;
(PID.TID 0000.0001) staggerTimeStep =    /* Stagger time stepping on/off flag */
(PID.TID 0000.0001)                   T
(PID.TID 0000.0001)     ;
(PID.TID 0000.0001) doResetHFactors = /* reset thickness factors @ each time-step */
(PID.TID 0000.0001)                   F
(PID.TID 0000.0001)     ;
(PID.TID 0000.0001) multiDimAdvection =  /* enable/disable Multi-Dim Advection */
(PID.TID 0000.0001)                   T
(PID.TID 0000.0001)     ;
(PID.TID 0000.0001) useMultiDimAdvec =   /* Multi-Dim Advection is/is-not used */
(PID.TID 0000.0001)                   T
(PID.TID 0000.0001)     ;
(PID.TID 0000.0001) implicitDiffusion = /* Implicit Diffusion on/off flag */
(PID.TID 0000.0001)                   T
(PID.TID 0000.0001)     ;
(PID.TID 0000.0001) tempStepping =  /* Temperature equation on/off flag */
(PID.TID 0000.0001)                   T
(PID.TID 0000.0001)     ;
(PID.TID 0000.0001) tempAdvection = /* Temperature advection on/off flag */
(PID.TID 0000.0001)                   T
(PID.TID 0000.0001)     ;
(PID.TID 0000.0001) tempImplVertAdv = /* Temp. implicit vert. advection on/off */
(PID.TID 0000.0001)                   F
(PID.TID 0000.0001)     ;
(PID.TID 0000.0001) tempForcing  =  /* Temperature forcing on/off flag */
(PID.TID 0000.0001)                   T
(PID.TID 0000.0001)     ;
(PID.TID 0000.0001) doThetaClimRelax = /* apply SST relaxation on/off flag */
(PID.TID 0000.0001)                   F
(PID.TID 0000.0001)     ;
(PID.TID 0000.0001) tempIsActiveTr = /* Temp. is a dynamically Active Tracer */
(PID.TID 0000.0001)                   T
(PID.TID 0000.0001)     ;
(PID.TID 0000.0001) saltStepping =  /* Salinity equation on/off flag */
(PID.TID 0000.0001)                   T
(PID.TID 0000.0001)     ;
(PID.TID 0000.0001) saltAdvection = /* Salinity advection on/off flag */
(PID.TID 0000.0001)                   T
(PID.TID 0000.0001)     ;
(PID.TID 0000.0001) saltImplVertAdv = /* Sali. implicit vert. advection on/off */
(PID.TID 0000.0001)                   F
(PID.TID 0000.0001)     ;
(PID.TID 0000.0001) saltForcing  =  /* Salinity forcing on/off flag */
(PID.TID 0000.0001)                   T
(PID.TID 0000.0001)     ;
(PID.TID 0000.0001) doSaltClimRelax = /* apply SSS relaxation on/off flag */
(PID.TID 0000.0001)                   F
(PID.TID 0000.0001)     ;
(PID.TID 0000.0001) saltIsActiveTr = /* Salt  is a dynamically Active Tracer */
(PID.TID 0000.0001)                   T
(PID.TID 0000.0001)     ;
(PID.TID 0000.0001)  readBinaryPrec = /* Precision used for reading binary files */
(PID.TID 0000.0001)                      32
(PID.TID 0000.0001)     ;
(PID.TID 0000.0001) writeBinaryPrec = /* Precision used for writing binary files */
(PID.TID 0000.0001)                      32
(PID.TID 0000.0001)     ;
(PID.TID 0000.0001)  rwSuffixType =   /* select format of mds file suffix */
(PID.TID 0000.0001)                       0
(PID.TID 0000.0001)    = 0 : myIter (I10.10) ;   = 1 : 100*myTime (100th sec) ;
[...]
 cg2d: Sum(rhs),rhsMax =  -2.14348570653913E+00  8.41708707563301E+00
(PID.TID 0000.0001)      cg2d_init_res =   1.97957063832222E-03
(PID.TID 0000.0001)      cg2d_iters(min,last) =      -1     164
(PID.TID 0000.0001)      cg2d_last_res =   9.34461917795246E-12
 SURF_ADJUSTMENT: Iter=    756020 Nb_pts,Vol=        12  1.77714025E+03
(PID.TID 0000.0001) // =======================================================
(PID.TID 0000.0001) // Begin MONITOR dynamic field statistics
(PID.TID 0000.0001) // =======================================================
(PID.TID 0000.0001) %MON time_tsnumber                =                756020
(PID.TID 0000.0001) %MON time_secondsf                =   3.0240800000000E+06
(PID.TID 0000.0001) %MON dynstat_eta_max              =   4.4538270970099E-01
(PID.TID 0000.0001) %MON dynstat_eta_min              =  -8.8708638344537E-01
(PID.TID 0000.0001) %MON dynstat_eta_mean             =   5.6486126880563E-03
(PID.TID 0000.0001) %MON dynstat_eta_sd               =   2.5874378861348E-01
(PID.TID 0000.0001) %MON dynstat_eta_del2             =   3.1825004408323E-04
(PID.TID 0000.0001) %MON dynstat_uvel_max             =   1.3569819802000E-02
(PID.TID 0000.0001) %MON dynstat_uvel_min             =  -3.9799481774989E-02
(PID.TID 0000.0001) %MON dynstat_uvel_mean            =  -4.2582810335696E-05
(PID.TID 0000.0001) %MON dynstat_uvel_sd              =   1.6572859180998E-03
(PID.TID 0000.0001) %MON dynstat_uvel_del2            =   7.1738473054730E-08
(PID.TID 0000.0001) %MON dynstat_vvel_max             =   5.7203846907805E-02
(PID.TID 0000.0001) %MON dynstat_vvel_min             =  -1.9063619819021E-02
(PID.TID 0000.0001) %MON dynstat_vvel_mean            =   1.8590067713442E-04
(PID.TID 0000.0001) %MON dynstat_vvel_sd              =   2.0560044923048E-03
(PID.TID 0000.0001) %MON dynstat_vvel_del2            =   4.3798176341935E-08
(PID.TID 0000.0001) %MON dynstat_wvel_max             =   6.6534634176380E-03
(PID.TID 0000.0001) %MON dynstat_wvel_min             =  -1.4785873083804E-02
(PID.TID 0000.0001) %MON dynstat_wvel_mean            =   3.6268617331414E-06
(PID.TID 0000.0001) %MON dynstat_wvel_sd              =   4.2884324016048E-04
(PID.TID 0000.0001) %MON dynstat_wvel_del2            =   2.1548374697878E-07
(PID.TID 0000.0001) %MON dynstat_theta_max            =   2.9331144433738E-01
(PID.TID 0000.0001) %MON dynstat_theta_min            =  -2.2662896800089E+00
(PID.TID 0000.0001) %MON dynstat_theta_mean           =   1.7407020941292E-01
(PID.TID 0000.0001) %MON dynstat_theta_sd             =   2.3287566786129E-01
(PID.TID 0000.0001) %MON dynstat_theta_del2           =   1.4601587018419E-06
(PID.TID 0000.0001) %MON dynstat_salt_max             =   3.4777442714346E+01
(PID.TID 0000.0001) %MON dynstat_salt_min             =   2.9766698558579E+01
(PID.TID 0000.0001) %MON dynstat_salt_mean            =   3.4616487441476E+01
(PID.TID 0000.0001) %MON dynstat_salt_sd              =   5.8407849535585E-01
(PID.TID 0000.0001) %MON dynstat_salt_del2            =   1.6628196179459E-06
(PID.TID 0000.0001) %MON dynstat_sst_max              =   0.0000000000000E+00
(PID.TID 0000.0001) %MON dynstat_sst_min              =  -5.2680641127484E-01
(PID.TID 0000.0001) %MON dynstat_sst_mean             =  -4.5808917804297E-02
(PID.TID 0000.0001) %MON dynstat_sst_sd               =   9.0840076899776E-02
(PID.TID 0000.0001) %MON dynstat_sst_del2             =   8.3724146589019E-05
(PID.TID 0000.0001) %MON dynstat_sss_max              =   3.0529563290503E+01
(PID.TID 0000.0001) %MON dynstat_sss_min              =   0.0000000000000E+00
(PID.TID 0000.0001) %MON dynstat_sss_mean             =   7.2409643284337E+00
(PID.TID 0000.0001) %MON dynstat_sss_sd               =   1.2862563780249E+01
(PID.TID 0000.0001) %MON dynstat_sss_del2             =   7.0181799552318E-03
(PID.TID 0000.0001) %MON forcing_qnet_max             =   0.0000000000000E+00
(PID.TID 0000.0001) %MON forcing_qnet_min             =   0.0000000000000E+00
(PID.TID 0000.0001) %MON forcing_qnet_mean            =   0.0000000000000E+00
(PID.TID 0000.0001) %MON forcing_qnet_sd              =   0.0000000000000E+00
(PID.TID 0000.0001) %MON forcing_qnet_del2            =   0.0000000000000E+00
(PID.TID 0000.0001) %MON forcing_qsw_max              =   0.0000000000000E+00
(PID.TID 0000.0001) %MON forcing_qsw_min              =   0.0000000000000E+00
(PID.TID 0000.0001) %MON forcing_qsw_mean             =   0.0000000000000E+00
(PID.TID 0000.0001) %MON forcing_qsw_sd               =   0.0000000000000E+00
(PID.TID 0000.0001) %MON forcing_qsw_del2             =   0.0000000000000E+00
(PID.TID 0000.0001) %MON forcing_empmr_max            =   1.7933533242819E-05
(PID.TID 0000.0001) %MON forcing_empmr_min            =  -3.6196357613801E-04
(PID.TID 0000.0001) %MON forcing_empmr_mean           =  -3.7629673997863E-05
(PID.TID 0000.0001) %MON forcing_empmr_sd             =   5.4079342975623E-05
(PID.TID 0000.0001) %MON forcing_empmr_del2           =   1.8430335305139E-07
(PID.TID 0000.0001) %MON forcing_fu_max               =   0.0000000000000E+00
(PID.TID 0000.0001) %MON forcing_fu_min               =   0.0000000000000E+00
(PID.TID 0000.0001) %MON forcing_fu_mean              =   0.0000000000000E+00
(PID.TID 0000.0001) %MON forcing_fu_sd                =   0.0000000000000E+00
(PID.TID 0000.0001) %MON forcing_fu_del2              =   0.0000000000000E+00
(PID.TID 0000.0001) %MON forcing_fv_max               =   0.0000000000000E+00
(PID.TID 0000.0001) %MON forcing_fv_min               =   0.0000000000000E+00
(PID.TID 0000.0001) %MON forcing_fv_mean              =   0.0000000000000E+00
(PID.TID 0000.0001) %MON forcing_fv_sd                =   0.0000000000000E+00
(PID.TID 0000.0001) %MON forcing_fv_del2              =   0.0000000000000E+00
(PID.TID 0000.0001) %MON trAdv_CFL_u_max              =   9.7886921313469E-03
(PID.TID 0000.0001) %MON trAdv_CFL_v_max              =   2.2926251963277E-03
(PID.TID 0000.0001) %MON trAdv_CFL_w_max              =   5.9099758513915E-02
(PID.TID 0000.0001) %MON advcfl_uvel_max              =   9.7886921313647E-03
(PID.TID 0000.0001) %MON advcfl_vvel_max              =   2.2927336618134E-03
(PID.TID 0000.0001) %MON advcfl_wvel_max              =   5.9099758513915E-02
(PID.TID 0000.0001) %MON advcfl_W_hf_max              =   5.9099758513915E-02
(PID.TID 0000.0001) %MON pe_b_mean                    =   4.7436304105318E-04
(PID.TID 0000.0001) %MON ke_max                       =   1.9460492237148E-03
(PID.TID 0000.0001) %MON ke_mean                      =   3.4737043677772E-06
(PID.TID 0000.0001) %MON ke_vol                       =   1.7987028848581E+11
(PID.TID 0000.0001) %MON vort_r_min                   =  -3.8272801085151E-03
(PID.TID 0000.0001) %MON vort_r_max                   =   8.6387701193688E-04
(PID.TID 0000.0001) %MON vort_a_mean                  =   1.4389824107846E-04
(PID.TID 0000.0001) %MON vort_a_sd                    =   1.9129984183803E-05
(PID.TID 0000.0001) %MON vort_p_mean                  =   1.4952875527726E-04
(PID.TID 0000.0001) %MON vort_p_sd                    =   5.4695339120419E-05
(PID.TID 0000.0001) %MON surfExpan_theta_mean         =  -1.6009837492159E-06
(PID.TID 0000.0001) %MON surfExpan_salt_mean          =  -5.0348110306171E-05
(PID.TID 0000.0001) // =======================================================
(PID.TID 0000.0001) // End MONITOR dynamic field statistics
(PID.TID 0000.0001) // =======================================================
(PID.TID 0000.0001) // =======================================================
(PID.TID 0000.0001) // Begin OBCS MONITOR field statistics
(PID.TID 0000.0001) // =======================================================
(PID.TID 0000.0001) %MON obc_N_vVel_max               =   0.0000000000000E+00
(PID.TID 0000.0001) %MON obc_N_vVel_min               =   0.0000000000000E+00
(PID.TID 0000.0001) %MON obc_N_vVel_mean              =   0.0000000000000E+00
(PID.TID 0000.0001) %MON obc_N_vVel_sd                =   0.0000000000000E+00
(PID.TID 0000.0001) %MON obc_N_vVel_Int               =   0.0000000000000E+00
(PID.TID 0000.0001) // =======================================================
(PID.TID 0000.0001) // End OBCS MONITOR field statistics
(PID.TID 0000.0001) // =======================================================
(PID.TID 0000.0001) DIAGSTATS_CLOSE_IO: close file: dynStDiag.0000756000.txt , unit=     9
(PID.TID 0000.0001) DIAGSTATS_CLOSE_IO: close file: surfStDiag.0000756000.txt , unit=    10
(PID.TID 0000.0001) %CHECKPOINT    756020 ckptA
(PID.TID 0000.0001)   Seconds in section "ALL                    [THE_MODEL_MAIN]":
(PID.TID 0000.0001)           User time:   598.409915924072
(PID.TID 0000.0001)         System time:  0.000000000000000E+000
(PID.TID 0000.0001)     Wall clock time:   764.329087972641
(PID.TID 0000.0001)          No. starts:           1
(PID.TID 0000.0001)           No. stops:           1
(PID.TID 0000.0001)   Seconds in section "INITIALISE_FIXED       [THE_MODEL_MAIN]":
(PID.TID 0000.0001)           User time:   78.2773284912109
(PID.TID 0000.0001)         System time:  0.000000000000000E+000
(PID.TID 0000.0001)     Wall clock time:   92.6241950988770
(PID.TID 0000.0001)          No. starts:           1
(PID.TID 0000.0001)           No. stops:           1
(PID.TID 0000.0001)   Seconds in section "THE_MAIN_LOOP          [THE_MODEL_MAIN]":
(PID.TID 0000.0001)           User time:   520.132553100586
(PID.TID 0000.0001)         System time:  0.000000000000000E+000
(PID.TID 0000.0001)     Wall clock time:   671.704868078232
(PID.TID 0000.0001)          No. starts:           1
(PID.TID 0000.0001)           No. stops:           1
(PID.TID 0000.0001)   Seconds in section "INITIALISE_VARIA    [THE_MAIN_LOOP]":
(PID.TID 0000.0001)           User time:   39.2469329833984
(PID.TID 0000.0001)         System time:  0.000000000000000E+000
(PID.TID 0000.0001)     Wall clock time:   54.2565519809723
(PID.TID 0000.0001)          No. starts:           1
(PID.TID 0000.0001)           No. stops:           1
(PID.TID 0000.0001)   Seconds in section "MAIN LOOP           [THE_MAIN_LOOP]":
(PID.TID 0000.0001)           User time:   480.885543823242
(PID.TID 0000.0001)         System time:  0.000000000000000E+000
(PID.TID 0000.0001)     Wall clock time:   617.447919845581
(PID.TID 0000.0001)          No. starts:           1
(PID.TID 0000.0001)           No. stops:           1
(PID.TID 0000.0001)   Seconds in section "MAIN_DO_LOOP        [THE_MAIN_LOOP]":
(PID.TID 0000.0001)           User time:   480.885528564453
(PID.TID 0000.0001)         System time:  0.000000000000000E+000
(PID.TID 0000.0001)     Wall clock time:   617.447773456573
(PID.TID 0000.0001)          No. starts:          20
(PID.TID 0000.0001)           No. stops:          20
(PID.TID 0000.0001)   Seconds in section "FORWARD_STEP        [MAIN_DO_LOOP]":
(PID.TID 0000.0001)           User time:   480.885253906250
(PID.TID 0000.0001)         System time:  0.000000000000000E+000
(PID.TID 0000.0001)     Wall clock time:   617.447113990784
(PID.TID 0000.0001)          No. starts:          20
(PID.TID 0000.0001)           No. stops:          20
(PID.TID 0000.0001)   Seconds in section "SHELFICE_REMESHING     [FORWARD_STEP]":
(PID.TID 0000.0001)           User time:   1.29592895507812
(PID.TID 0000.0001)         System time:  0.000000000000000E+000
(PID.TID 0000.0001)     Wall clock time:   1.38140940666199
(PID.TID 0000.0001)          No. starts:          20
(PID.TID 0000.0001)           No. stops:          20
(PID.TID 0000.0001)   Seconds in section "DO_STATEVARS_DIAGS  [FORWARD_STEP]":
(PID.TID 0000.0001)           User time:  0.716232299804688
(PID.TID 0000.0001)         System time:  0.000000000000000E+000
(PID.TID 0000.0001)     Wall clock time:  0.760554075241089
(PID.TID 0000.0001)          No. starts:          60
(PID.TID 0000.0001)           No. stops:          60
(PID.TID 0000.0001)   Seconds in section "LOAD_FIELDS_DRIVER  [FORWARD_STEP]":
(PID.TID 0000.0001)           User time:  7.629394531250000E-004
(PID.TID 0000.0001)         System time:  0.000000000000000E+000
(PID.TID 0000.0001)     Wall clock time:  3.427743911743164E-003
(PID.TID 0000.0001)          No. starts:          20
(PID.TID 0000.0001)           No. stops:          20
(PID.TID 0000.0001)   Seconds in section "EXTERNAL_FLDS_LOAD [LOAD_FLDS_DRIVER]":
(PID.TID 0000.0001)           User time:  4.882812500000000E-004
(PID.TID 0000.0001)         System time:  0.000000000000000E+000
(PID.TID 0000.0001)     Wall clock time:  2.715110778808594E-003
(PID.TID 0000.0001)          No. starts:          20
(PID.TID 0000.0001)           No. stops:          20
(PID.TID 0000.0001)   Seconds in section "DO_ATMOSPHERIC_PHYS [FORWARD_STEP]":
(PID.TID 0000.0001)           User time:  4.272460937500000E-004
(PID.TID 0000.0001)         System time:  0.000000000000000E+000
(PID.TID 0000.0001)     Wall clock time:  3.247499465942383E-003
(PID.TID 0000.0001)          No. starts:          20
(PID.TID 0000.0001)           No. stops:          20
(PID.TID 0000.0001)   Seconds in section "DO_OCEANIC_PHYS     [FORWARD_STEP]":
(PID.TID 0000.0001)           User time:   2.24655151367188
(PID.TID 0000.0001)         System time:  0.000000000000000E+000
(PID.TID 0000.0001)     Wall clock time:   2.36635732650757
(PID.TID 0000.0001)          No. starts:          20
(PID.TID 0000.0001)           No. stops:          20
(PID.TID 0000.0001)   Seconds in section "SHELFICE_THERMODYNAMICS [DO_OCEANIC_PHYS]":
(PID.TID 0000.0001)           User time:  2.700805664062500E-003
(PID.TID 0000.0001)         System time:  0.000000000000000E+000
(PID.TID 0000.0001)     Wall clock time:  1.657176017761230E-002
(PID.TID 0000.0001)          No. starts:          20
(PID.TID 0000.0001)           No. stops:          20
(PID.TID 0000.0001)   Seconds in section "DYNAMICS            [FORWARD_STEP]":
(PID.TID 0000.0001)           User time:   10.3601226806641
(PID.TID 0000.0001)         System time:  0.000000000000000E+000
(PID.TID 0000.0001)     Wall clock time:   10.6918644905090
(PID.TID 0000.0001)          No. starts:          20
(PID.TID 0000.0001)           No. stops:          20
(PID.TID 0000.0001)   Seconds in section "UPDATE_SURF_DR      [FORWARD_STEP]":
(PID.TID 0000.0001)           User time:  3.967285156250000E-004
(PID.TID 0000.0001)         System time:  0.000000000000000E+000
(PID.TID 0000.0001)     Wall clock time:  4.611015319824219E-004
(PID.TID 0000.0001)          No. starts:          20
(PID.TID 0000.0001)           No. stops:          20
(PID.TID 0000.0001)   Seconds in section "UPDATE_CG2D         [FORWARD_STEP]":
(PID.TID 0000.0001)           User time:  0.212509155273438
(PID.TID 0000.0001)         System time:  0.000000000000000E+000
(PID.TID 0000.0001)     Wall clock time:  0.218578577041626
(PID.TID 0000.0001)          No. starts:          20
(PID.TID 0000.0001)           No. stops:          20
(PID.TID 0000.0001)   Seconds in section "SOLVE_FOR_PRESSURE  [FORWARD_STEP]":
(PID.TID 0000.0001)           User time:   5.91612243652344
(PID.TID 0000.0001)         System time:  0.000000000000000E+000
(PID.TID 0000.0001)     Wall clock time:   5.95682954788208
(PID.TID 0000.0001)          No. starts:          20
(PID.TID 0000.0001)           No. stops:          20
(PID.TID 0000.0001)   Seconds in section "MOM_CORRECTION_STEP [FORWARD_STEP]":
(PID.TID 0000.0001)           User time:  0.516540527343750
(PID.TID 0000.0001)         System time:  0.000000000000000E+000
(PID.TID 0000.0001)     Wall clock time:  0.545485973358154
(PID.TID 0000.0001)          No. starts:          20
(PID.TID 0000.0001)           No. stops:          20
(PID.TID 0000.0001)   Seconds in section "INTEGR_CONTINUITY   [FORWARD_STEP]":
(PID.TID 0000.0001)           User time:  0.527297973632812
(PID.TID 0000.0001)         System time:  0.000000000000000E+000
(PID.TID 0000.0001)     Wall clock time:  0.529894828796387
(PID.TID 0000.0001)          No. starts:          20
(PID.TID 0000.0001)           No. stops:          20
(PID.TID 0000.0001)   Seconds in section "CALC_SURF_DR      [FORWARD_STEP]":
(PID.TID 0000.0001)           User time:   13.6224060058594
(PID.TID 0000.0001)         System time:  0.000000000000000E+000
(PID.TID 0000.0001)     Wall clock time:   13.6318018436432
(PID.TID 0000.0001)          No. starts:          20
(PID.TID 0000.0001)           No. stops:          20
(PID.TID 0000.0001)   Seconds in section "BLOCKING_EXCHANGES  [FORWARD_STEP]":
(PID.TID 0000.0001)           User time:  0.977981567382812
(PID.TID 0000.0001)         System time:  0.000000000000000E+000
(PID.TID 0000.0001)     Wall clock time:   1.12560272216797
(PID.TID 0000.0001)          No. starts:          40
(PID.TID 0000.0001)           No. stops:          40
(PID.TID 0000.0001)   Seconds in section "THERMODYNAMICS      [FORWARD_STEP]":
(PID.TID 0000.0001)           User time:   16.0225677490234
(PID.TID 0000.0001)         System time:  0.000000000000000E+000
(PID.TID 0000.0001)     Wall clock time:   16.2410802841187
(PID.TID 0000.0001)          No. starts:          20
(PID.TID 0000.0001)           No. stops:          20
(PID.TID 0000.0001)   Seconds in section "TRC_CORRECTION_STEP [FORWARD_STEP]":
(PID.TID 0000.0001)           User time:  1.831054687500000E-004
(PID.TID 0000.0001)         System time:  0.000000000000000E+000
(PID.TID 0000.0001)     Wall clock time:  1.456737518310547E-004
(PID.TID 0000.0001)          No. starts:          20
(PID.TID 0000.0001)           No. stops:          20
(PID.TID 0000.0001)   Seconds in section "MONITOR             [FORWARD_STEP]":
(PID.TID 0000.0001)           User time:   3.24409484863281
(PID.TID 0000.0001)         System time:  0.000000000000000E+000
(PID.TID 0000.0001)     Wall clock time:   3.32191205024719
(PID.TID 0000.0001)          No. starts:          20
(PID.TID 0000.0001)           No. stops:          20
(PID.TID 0000.0001)   Seconds in section "DO_THE_MODEL_IO     [FORWARD_STEP]":
(PID.TID 0000.0001)           User time:   398.847122192383
(PID.TID 0000.0001)         System time:  0.000000000000000E+000
(PID.TID 0000.0001)     Wall clock time:   521.516200780869
(PID.TID 0000.0001)          No. starts:          20
(PID.TID 0000.0001)           No. stops:          20
(PID.TID 0000.0001)   Seconds in section "DO_WRITE_PICKUP     [FORWARD_STEP]":
(PID.TID 0000.0001)           User time:   26.3740234375000
(PID.TID 0000.0001)         System time:  0.000000000000000E+000
(PID.TID 0000.0001)     Wall clock time:   39.1473374366760
(PID.TID 0000.0001)          No. starts:          20
(PID.TID 0000.0001)           No. stops:          20
(PID.TID 0000.0001) // ======================================================
(PID.TID 0000.0001) // Tile <-> Tile communication statistics
(PID.TID 0000.0001) // ======================================================
(PID.TID 0000.0001) // o Tile number: 000001
(PID.TID 0000.0001) //         No. X exchanges =              0
(PID.TID 0000.0001) //            Max. X spins =              0
(PID.TID 0000.0001) //            Min. X spins =     1000000000
(PID.TID 0000.0001) //          Total. X spins =              0
(PID.TID 0000.0001) //            Avg. X spins =       0.00E+00
(PID.TID 0000.0001) //         No. Y exchanges =              0
(PID.TID 0000.0001) //            Max. Y spins =              0
(PID.TID 0000.0001) //            Min. Y spins =     1000000000
(PID.TID 0000.0001) //          Total. Y spins =              0
(PID.TID 0000.0001) //            Avg. Y spins =       0.00E+00
(PID.TID 0000.0001) // o Thread number: 000001
(PID.TID 0000.0001) //            No. barriers =         415822
(PID.TID 0000.0001) //      Max. barrier spins =              1
(PID.TID 0000.0001) //      Min. barrier spins =              1
(PID.TID 0000.0001) //     Total barrier spins =         415822
(PID.TID 0000.0001) //      Avg. barrier spins =       1.00E+00
PROGRAM MAIN: Execution ended Normally
